[2026-02-07 14:55:13] INFO  org.ieee.odm.adapter.AbstractODMAdapter - Parse input file and create the parser object, testData/IEEE9Bus/ieee9.raw
[2026-02-07 14:55:13] INFO  org.ieee.odm.adapter.AbstractODMAdapter - Parse input file and create the parser object, testData/IEEE9Bus/ieee9.seq
[2026-02-07 14:55:13] INFO  org.ieee.odm.adapter.AbstractODMAdapter - Parse input file and create the parser object, testData/IEEE9Bus/ieee9_dyn_onlyGen.dyr
[2026-02-07 14:55:13] INFO  org.ieee.odm.adapter.psse.raw.impl.PSSEAcscRawAdapter - PSS/E Positive sequence Generator data record processed
[2026-02-07 14:55:13] INFO  org.ieee.odm.adapter.psse.raw.impl.PSSEAcscRawAdapter - PSS/E Negative sequence Generator data record processed
[2026-02-07 14:55:13] INFO  org.ieee.odm.adapter.psse.raw.impl.PSSEAcscRawAdapter - PSS/E Zero sequence Generator data record processed
[2026-02-07 14:55:13] INFO  org.ieee.odm.adapter.psse.raw.impl.PSSEAcscRawAdapter - PSS/E Negative sequence shunt load data record processed
[2026-02-07 14:55:13] INFO  org.ieee.odm.adapter.psse.raw.impl.PSSEAcscRawAdapter - PSS/E Zero sequence shunt load data record processed
[2026-02-07 14:55:13] INFO  org.ieee.odm.adapter.psse.raw.impl.PSSEAcscRawAdapter - PSS/E Zero sequence non-transformer data record processed
[2026-02-07 14:55:13] INFO  org.ieee.odm.adapter.psse.raw.impl.PSSEAcscRawAdapter - PSS/E Zero sequence multual impedance data record processed
[2026-02-07 14:55:13] INFO  org.ieee.odm.adapter.psse.raw.impl.PSSEAcscRawAdapter - PSS/E Zero sequence transformer data record processed
[2026-02-07 14:55:13] INFO  org.ieee.odm.adapter.psse.raw.impl.PSSEAcscRawAdapter - PSS/E Zero sequence switch shunt data record processed
[2026-02-07 14:55:13] INFO  com.interpss.core.algo.impl.LoadflowAlgorithmImpl - AclfNetwork coordinate: Polar
[2026-02-07 14:55:13] INFO  com.interpss.core.aclf.impl.BaseAclfNetworkImpl - AclfNetworkImpl.checkData() called
[2026-02-07 14:55:13] INFO  com.interpss.core.algo.impl.LfCalculatorImpl - Aclf Itr: 0   dPmax :  0.01385 at Bus : Bus4,     dQmax :  0.02108 at Bus : Bus4
[2026-02-07 14:55:13] INFO  com.interpss.core.algo.impl.LfCalculatorImpl - Aclf Itr: 1   dPmax :  0.00001 at Bus : Bus4,     dQmax :  0.00002 at Bus : Bus4
[2026-02-07 14:55:13] INFO  com.interpss.core.aclf.impl.BaseAclfNetworkImpl - Has no limit backoff adjusments in the network 
[2026-02-07 14:55:13] INFO  com.interpss.core.aclf.impl.BaseAclfNetworkImpl - Has no voltage adjusments in the network 
[2026-02-07 14:55:13] INFO  com.interpss.core.aclf.impl.BaseAclfNetworkImpl - Has no power adjusments in the network 
[2026-02-07 14:55:13] INFO  com.interpss.core.algo.impl.NetAdjustAlgorithmImpl - Has no area power adjusments in the network 
[2026-02-07 14:55:13] INFO  com.interpss.core.algo.impl.LfCalculatorImpl - Load Flow Converged !
[2026-02-07 14:55:13] INFO  com.interpss.core.acsc.impl.BaseAcscNetworkImpl - YMatrix formed, sequence: Positive
[2026-02-07 14:55:13] INFO  com.interpss.core.acsc.impl.BaseAcscNetworkImpl - YMatrix formed, sequence: Positive
[2026-02-07 14:55:13] INFO  org.ieee.odm.adapter.AbstractODMAdapter - Parse input file and create the parser object, testData/IEEE9Bus/ieee9.raw
[2026-02-07 14:55:13] INFO  org.ieee.odm.adapter.AbstractODMAdapter - Parse input file and create the parser object, testData/IEEE9Bus/ieee9.seq
[2026-02-07 14:55:13] INFO  org.ieee.odm.adapter.AbstractODMAdapter - Parse input file and create the parser object, testData/IEEE9Bus/ieee9_dyn_onlyGen.dyr
[2026-02-07 14:55:13] INFO  org.ieee.odm.adapter.psse.raw.impl.PSSEAcscRawAdapter - PSS/E Positive sequence Generator data record processed
[2026-02-07 14:55:13] INFO  org.ieee.odm.adapter.psse.raw.impl.PSSEAcscRawAdapter - PSS/E Negative sequence Generator data record processed
[2026-02-07 14:55:13] INFO  org.ieee.odm.adapter.psse.raw.impl.PSSEAcscRawAdapter - PSS/E Zero sequence Generator data record processed
[2026-02-07 14:55:13] INFO  org.ieee.odm.adapter.psse.raw.impl.PSSEAcscRawAdapter - PSS/E Negative sequence shunt load data record processed
[2026-02-07 14:55:13] INFO  org.ieee.odm.adapter.psse.raw.impl.PSSEAcscRawAdapter - PSS/E Zero sequence shunt load data record processed
[2026-02-07 14:55:13] INFO  org.ieee.odm.adapter.psse.raw.impl.PSSEAcscRawAdapter - PSS/E Zero sequence non-transformer data record processed
[2026-02-07 14:55:13] INFO  org.ieee.odm.adapter.psse.raw.impl.PSSEAcscRawAdapter - PSS/E Zero sequence multual impedance data record processed
[2026-02-07 14:55:13] INFO  org.ieee.odm.adapter.psse.raw.impl.PSSEAcscRawAdapter - PSS/E Zero sequence transformer data record processed
[2026-02-07 14:55:13] INFO  org.ieee.odm.adapter.psse.raw.impl.PSSEAcscRawAdapter - PSS/E Zero sequence switch shunt data record processed
[2026-02-07 14:55:13] INFO  com.interpss.core.algo.impl.LoadflowAlgorithmImpl - AclfNetwork coordinate: Polar
[2026-02-07 14:55:13] INFO  com.interpss.core.aclf.impl.BaseAclfNetworkImpl - AclfNetworkImpl.checkData() called
[2026-02-07 14:55:13] INFO  com.interpss.core.algo.impl.LfCalculatorImpl - Aclf Itr: 0   dPmax :  0.01385 at Bus : Bus4,     dQmax :  0.02108 at Bus : Bus4
[2026-02-07 14:55:13] INFO  com.interpss.core.algo.impl.LfCalculatorImpl - Aclf Itr: 1   dPmax :  0.00001 at Bus : Bus4,     dQmax :  0.00002 at Bus : Bus4
[2026-02-07 14:55:13] INFO  com.interpss.core.aclf.impl.BaseAclfNetworkImpl - Has no limit backoff adjusments in the network 
[2026-02-07 14:55:13] INFO  com.interpss.core.aclf.impl.BaseAclfNetworkImpl - Has no voltage adjusments in the network 
[2026-02-07 14:55:13] INFO  com.interpss.core.aclf.impl.BaseAclfNetworkImpl - Has no power adjusments in the network 
[2026-02-07 14:55:13] INFO  com.interpss.core.algo.impl.NetAdjustAlgorithmImpl - Has no area power adjusments in the network 
[2026-02-07 14:55:13] INFO  com.interpss.core.algo.impl.LfCalculatorImpl - Load Flow Converged !
[2026-02-07 14:55:13] INFO  org.interpss.threePhase.dynamic.impl.DStabNetwork3phaseImpl - Start three-phase DStabNetwork initialization...
[2026-02-07 14:55:13] INFO  org.ieee.odm.adapter.AbstractODMAdapter - Parse input file and create the parser object, testData/IEEE9Bus/ieee9.raw
[2026-02-07 14:55:13] INFO  org.ieee.odm.adapter.AbstractODMAdapter - Parse input file and create the parser object, testData/IEEE9Bus/ieee9.seq
[2026-02-07 14:55:13] INFO  org.ieee.odm.adapter.AbstractODMAdapter - Parse input file and create the parser object, testData/IEEE9Bus/ieee9_dyn_onlyGen.dyr
[2026-02-07 14:55:13] INFO  org.ieee.odm.adapter.psse.raw.impl.PSSEAcscRawAdapter - PSS/E Positive sequence Generator data record processed
[2026-02-07 14:55:13] INFO  org.ieee.odm.adapter.psse.raw.impl.PSSEAcscRawAdapter - PSS/E Negative sequence Generator data record processed
[2026-02-07 14:55:13] INFO  org.ieee.odm.adapter.psse.raw.impl.PSSEAcscRawAdapter - PSS/E Zero sequence Generator data record processed
[2026-02-07 14:55:13] INFO  org.ieee.odm.adapter.psse.raw.impl.PSSEAcscRawAdapter - PSS/E Negative sequence shunt load data record processed
[2026-02-07 14:55:13] INFO  org.ieee.odm.adapter.psse.raw.impl.PSSEAcscRawAdapter - PSS/E Zero sequence shunt load data record processed
[2026-02-07 14:55:13] INFO  org.ieee.odm.adapter.psse.raw.impl.PSSEAcscRawAdapter - PSS/E Zero sequence non-transformer data record processed
[2026-02-07 14:55:13] INFO  org.ieee.odm.adapter.psse.raw.impl.PSSEAcscRawAdapter - PSS/E Zero sequence multual impedance data record processed
[2026-02-07 14:55:13] INFO  org.ieee.odm.adapter.psse.raw.impl.PSSEAcscRawAdapter - PSS/E Zero sequence transformer data record processed
[2026-02-07 14:55:13] INFO  org.ieee.odm.adapter.psse.raw.impl.PSSEAcscRawAdapter - PSS/E Zero sequence switch shunt data record processed
[2026-02-07 14:55:13] INFO  com.interpss.core.algo.impl.LoadflowAlgorithmImpl - AclfNetwork coordinate: Polar
[2026-02-07 14:55:13] INFO  com.interpss.core.aclf.impl.BaseAclfNetworkImpl - AclfNetworkImpl.checkData() called
[2026-02-07 14:55:13] INFO  com.interpss.core.algo.impl.LfCalculatorImpl - Aclf Itr: 0   dPmax :  0.01385 at Bus : Bus4,     dQmax :  0.02108 at Bus : Bus4
[2026-02-07 14:55:13] INFO  com.interpss.core.algo.impl.LfCalculatorImpl - Aclf Itr: 1   dPmax :  0.00001 at Bus : Bus4,     dQmax :  0.00002 at Bus : Bus4
[2026-02-07 14:55:13] INFO  com.interpss.core.algo.impl.LfCalculatorImpl - Aclf Itr: 2   dPmax :  0.0000 at Bus : Bus4,     dQmax :  0.0000 at Bus : Bus4
[2026-02-07 14:55:13] INFO  com.interpss.core.aclf.impl.BaseAclfNetworkImpl - Has no limit backoff adjusments in the network 
[2026-02-07 14:55:13] INFO  com.interpss.core.aclf.impl.BaseAclfNetworkImpl - Has no voltage adjusments in the network 
[2026-02-07 14:55:13] INFO  com.interpss.core.aclf.impl.BaseAclfNetworkImpl - Has no power adjusments in the network 
[2026-02-07 14:55:13] INFO  com.interpss.core.algo.impl.NetAdjustAlgorithmImpl - Has no area power adjusments in the network 
[2026-02-07 14:55:13] INFO  com.interpss.core.algo.impl.LfCalculatorImpl - Load Flow Converged !
[2026-02-07 14:55:13] INFO  com.interpss.core.acsc.impl.BaseAcscNetworkImpl - YMatrix formed, sequence: Positive
[2026-02-07 14:55:13] INFO  org.interpss.threePhase.dynamic.impl.DStabNetwork3phaseImpl - Start three-phase DStabNetwork initialization...
[2026-02-07 14:55:13] ERROR org.interpss.multiNet.algo.MultiNet3Ph3SeqDStabSolverImpl - Error: SubNetwork initialization error:SubNet-2
[2026-02-07 14:55:13] INFO  org.ieee.odm.adapter.AbstractODMAdapter - Parse input file and create the parser object, testData/IEEE9Bus/ieee9.raw
[2026-02-07 14:55:13] INFO  org.ieee.odm.adapter.AbstractODMAdapter - Parse input file and create the parser object, testData/IEEE9Bus/ieee9.seq
[2026-02-07 14:55:13] INFO  org.ieee.odm.adapter.AbstractODMAdapter - Parse input file and create the parser object, testData/IEEE9Bus/ieee9_dyn_onlyGen.dyr
[2026-02-07 14:55:13] INFO  org.ieee.odm.adapter.psse.raw.impl.PSSEAcscRawAdapter - PSS/E Positive sequence Generator data record processed
[2026-02-07 14:55:13] INFO  org.ieee.odm.adapter.psse.raw.impl.PSSEAcscRawAdapter - PSS/E Negative sequence Generator data record processed
[2026-02-07 14:55:13] INFO  org.ieee.odm.adapter.psse.raw.impl.PSSEAcscRawAdapter - PSS/E Zero sequence Generator data record processed
[2026-02-07 14:55:13] INFO  org.ieee.odm.adapter.psse.raw.impl.PSSEAcscRawAdapter - PSS/E Negative sequence shunt load data record processed
[2026-02-07 14:55:13] INFO  org.ieee.odm.adapter.psse.raw.impl.PSSEAcscRawAdapter - PSS/E Zero sequence shunt load data record processed
[2026-02-07 14:55:13] INFO  org.ieee.odm.adapter.psse.raw.impl.PSSEAcscRawAdapter - PSS/E Zero sequence non-transformer data record processed
[2026-02-07 14:55:13] INFO  org.ieee.odm.adapter.psse.raw.impl.PSSEAcscRawAdapter - PSS/E Zero sequence multual impedance data record processed
[2026-02-07 14:55:13] INFO  org.ieee.odm.adapter.psse.raw.impl.PSSEAcscRawAdapter - PSS/E Zero sequence transformer data record processed
[2026-02-07 14:55:13] INFO  org.ieee.odm.adapter.psse.raw.impl.PSSEAcscRawAdapter - PSS/E Zero sequence switch shunt data record processed
[2026-02-07 14:55:13] INFO  com.interpss.core.algo.impl.LoadflowAlgorithmImpl - AclfNetwork coordinate: Polar
[2026-02-07 14:55:13] INFO  com.interpss.core.aclf.impl.BaseAclfNetworkImpl - AclfNetworkImpl.checkData() called
[2026-02-07 14:55:13] INFO  com.interpss.core.algo.impl.LfCalculatorImpl - Aclf Itr: 0   dPmax :  0.01385 at Bus : Bus4,     dQmax :  0.02108 at Bus : Bus4
[2026-02-07 14:55:13] INFO  com.interpss.core.algo.impl.LfCalculatorImpl - Aclf Itr: 1   dPmax :  0.00001 at Bus : Bus4,     dQmax :  0.00002 at Bus : Bus4
[2026-02-07 14:55:13] INFO  com.interpss.core.aclf.impl.BaseAclfNetworkImpl - Has no limit backoff adjusments in the network 
[2026-02-07 14:55:13] INFO  com.interpss.core.aclf.impl.BaseAclfNetworkImpl - Has no voltage adjusments in the network 
[2026-02-07 14:55:13] INFO  com.interpss.core.aclf.impl.BaseAclfNetworkImpl - Has no power adjusments in the network 
[2026-02-07 14:55:13] INFO  com.interpss.core.algo.impl.NetAdjustAlgorithmImpl - Has no area power adjusments in the network 
[2026-02-07 14:55:13] INFO  com.interpss.core.algo.impl.LfCalculatorImpl - Load Flow Converged !
[2026-02-07 14:55:13] INFO  com.interpss.core.acsc.impl.BaseAcscNetworkImpl - YMatrix formed, sequence: Positive
[2026-02-07 14:55:13] INFO  org.interpss.threePhase.dynamic.impl.DStabNetwork3phaseImpl - Start three-phase DStabNetwork initialization...
[2026-02-07 14:55:13] INFO  com.interpss.core.acsc.impl.BaseAcscNetworkImpl - YMatrix formed, sequence: Negative
[2026-02-07 14:55:13] INFO  com.interpss.core.acsc.impl.BaseAcscNetworkImpl - YMatrix LUed, sequence: Negative
[2026-02-07 14:55:13] INFO  com.interpss.core.acsc.impl.BaseAcscNetworkImpl - YMatrix formed, sequence: Zero
[2026-02-07 14:55:13] INFO  com.interpss.core.acsc.impl.BaseAcscNetworkImpl - YMatrix LUed, sequence: Zero
[2026-02-07 14:55:13] INFO  org.ieee.odm.adapter.AbstractODMAdapter - Parse input file and create the parser object, testData/IEEE9Bus/ieee9.raw
[2026-02-07 14:55:13] INFO  org.ieee.odm.adapter.AbstractODMAdapter - Parse input file and create the parser object, testData/IEEE9Bus/ieee9.seq
[2026-02-07 14:55:13] INFO  org.ieee.odm.adapter.AbstractODMAdapter - Parse input file and create the parser object, testData/IEEE9Bus/ieee9_dyn_onlyGen.dyr
[2026-02-07 14:55:13] INFO  org.ieee.odm.adapter.psse.raw.impl.PSSEAcscRawAdapter - PSS/E Positive sequence Generator data record processed
[2026-02-07 14:55:13] INFO  org.ieee.odm.adapter.psse.raw.impl.PSSEAcscRawAdapter - PSS/E Negative sequence Generator data record processed
[2026-02-07 14:55:13] INFO  org.ieee.odm.adapter.psse.raw.impl.PSSEAcscRawAdapter - PSS/E Zero sequence Generator data record processed
[2026-02-07 14:55:13] INFO  org.ieee.odm.adapter.psse.raw.impl.PSSEAcscRawAdapter - PSS/E Negative sequence shunt load data record processed
[2026-02-07 14:55:13] INFO  org.ieee.odm.adapter.psse.raw.impl.PSSEAcscRawAdapter - PSS/E Zero sequence shunt load data record processed
[2026-02-07 14:55:13] INFO  org.ieee.odm.adapter.psse.raw.impl.PSSEAcscRawAdapter - PSS/E Zero sequence non-transformer data record processed
[2026-02-07 14:55:13] INFO  org.ieee.odm.adapter.psse.raw.impl.PSSEAcscRawAdapter - PSS/E Zero sequence multual impedance data record processed
[2026-02-07 14:55:13] INFO  org.ieee.odm.adapter.psse.raw.impl.PSSEAcscRawAdapter - PSS/E Zero sequence transformer data record processed
[2026-02-07 14:55:13] INFO  org.ieee.odm.adapter.psse.raw.impl.PSSEAcscRawAdapter - PSS/E Zero sequence switch shunt data record processed
[2026-02-07 14:55:13] INFO  com.interpss.core.algo.impl.LoadflowAlgorithmImpl - AclfNetwork coordinate: Polar
[2026-02-07 14:55:13] INFO  com.interpss.core.aclf.impl.BaseAclfNetworkImpl - AclfNetworkImpl.checkData() called
[2026-02-07 14:55:13] INFO  com.interpss.core.algo.impl.LfCalculatorImpl - Aclf Itr: 0   dPmax :  0.01385 at Bus : Bus4,     dQmax :  0.02108 at Bus : Bus4
[2026-02-07 14:55:13] INFO  com.interpss.core.algo.impl.LfCalculatorImpl - Aclf Itr: 1   dPmax :  0.00001 at Bus : Bus4,     dQmax :  0.00002 at Bus : Bus4
[2026-02-07 14:55:13] INFO  com.interpss.core.aclf.impl.BaseAclfNetworkImpl - Has no limit backoff adjusments in the network 
[2026-02-07 14:55:13] INFO  com.interpss.core.aclf.impl.BaseAclfNetworkImpl - Has no voltage adjusments in the network 
[2026-02-07 14:55:13] INFO  com.interpss.core.aclf.impl.BaseAclfNetworkImpl - Has no power adjusments in the network 
[2026-02-07 14:55:13] INFO  com.interpss.core.algo.impl.NetAdjustAlgorithmImpl - Has no area power adjusments in the network 
[2026-02-07 14:55:13] INFO  com.interpss.core.algo.impl.LfCalculatorImpl - Load Flow Converged !
[2026-02-07 14:55:13] INFO  org.interpss.threePhase.dynamic.impl.DStabNetwork3phaseImpl - Start three-phase DStabNetwork initialization...
[2026-02-07 14:55:13] INFO  com.interpss.core.acsc.impl.BaseAcscNetworkImpl - YMatrix formed, sequence: Positive
[2026-02-07 14:55:13] INFO  com.interpss.core.acsc.impl.BaseAcscNetworkImpl - YMatrix formed, sequence: Negative
[2026-02-07 14:55:13] INFO  com.interpss.core.acsc.impl.BaseAcscNetworkImpl - YMatrix LUed, sequence: Negative
[2026-02-07 14:55:13] INFO  com.interpss.core.acsc.impl.BaseAcscNetworkImpl - YMatrix formed, sequence: Zero
[2026-02-07 14:55:13] INFO  com.interpss.core.acsc.impl.BaseAcscNetworkImpl - YMatrix LUed, sequence: Zero
[2026-02-07 14:55:13] INFO  org.interpss.multiNet.algo.MultiNet3Ph3SeqDStabSolverImpl - 0.0: multi subNetwork solution in the nextStep() is converged, iteration #2
[2026-02-07 14:55:13] INFO  org.interpss.multiNet.algo.MultiNet3Ph3SeqDStabSolverImpl - 0.0: multi subNetwork solution in the nextStep() is converged, iteration #2
[2026-02-07 14:55:13] INFO  org.interpss.multiNet.algo.MultiNet3Ph3SeqDStabSolverImpl - 0.005: multi subNetwork solution in the nextStep() is converged, iteration #2
[2026-02-07 14:55:13] INFO  org.interpss.multiNet.algo.MultiNet3Ph3SeqDStabSolverImpl - 0.005: multi subNetwork solution in the nextStep() is converged, iteration #2
[2026-02-07 14:55:13] INFO  org.interpss.multiNet.algo.MultiNet3Ph3SeqDStabSolverImpl - 0.01: multi subNetwork solution in the nextStep() is converged, iteration #2
[2026-02-07 14:55:13] INFO  org.interpss.multiNet.algo.MultiNet3Ph3SeqDStabSolverImpl - 0.01: multi subNetwork solution in the nextStep() is converged, iteration #2
[2026-02-07 14:55:13] INFO  org.interpss.multiNet.algo.MultiNet3Ph3SeqDStabSolverImpl - 0.015: multi subNetwork solution in the nextStep() is converged, iteration #2
[2026-02-07 14:55:13] INFO  org.interpss.multiNet.algo.MultiNet3Ph3SeqDStabSolverImpl - 0.015: multi subNetwork solution in the nextStep() is converged, iteration #2
[2026-02-07 14:55:13] INFO  org.interpss.multiNet.algo.MultiNet3Ph3SeqDStabSolverImpl - 0.02: multi subNetwork solution in the nextStep() is converged, iteration #2
[2026-02-07 14:55:13] INFO  org.interpss.multiNet.algo.MultiNet3Ph3SeqDStabSolverImpl - 0.02: multi subNetwork solution in the nextStep() is converged, iteration #2
[2026-02-07 14:55:13] INFO  org.interpss.multiNet.algo.MultiNet3Ph3SeqDStabSolverImpl - 0.025: multi subNetwork solution in the nextStep() is converged, iteration #2
[2026-02-07 14:55:13] INFO  org.interpss.multiNet.algo.MultiNet3Ph3SeqDStabSolverImpl - 0.025: multi subNetwork solution in the nextStep() is converged, iteration #2
[2026-02-07 14:55:13] INFO  org.interpss.multiNet.algo.MultiNet3Ph3SeqDStabSolverImpl - 0.030000000000000002: multi subNetwork solution in the nextStep() is converged, iteration #2
[2026-02-07 14:55:13] INFO  org.interpss.multiNet.algo.MultiNet3Ph3SeqDStabSolverImpl - 0.030000000000000002: multi subNetwork solution in the nextStep() is converged, iteration #2
[2026-02-07 14:55:13] INFO  org.interpss.multiNet.algo.MultiNet3Ph3SeqDStabSolverImpl - 0.035: multi subNetwork solution in the nextStep() is converged, iteration #2
[2026-02-07 14:55:13] INFO  org.interpss.multiNet.algo.MultiNet3Ph3SeqDStabSolverImpl - 0.035: multi subNetwork solution in the nextStep() is converged, iteration #2
[2026-02-07 14:55:13] INFO  org.interpss.multiNet.algo.MultiNet3Ph3SeqDStabSolverImpl - 0.04: multi subNetwork solution in the nextStep() is converged, iteration #2
[2026-02-07 14:55:13] INFO  org.interpss.multiNet.algo.MultiNet3Ph3SeqDStabSolverImpl - 0.04: multi subNetwork solution in the nextStep() is converged, iteration #2
[2026-02-07 14:55:13] INFO  org.interpss.multiNet.algo.MultiNet3Ph3SeqDStabSolverImpl - 0.045: multi subNetwork solution in the nextStep() is converged, iteration #2
[2026-02-07 14:55:13] INFO  org.interpss.multiNet.algo.MultiNet3Ph3SeqDStabSolverImpl - 0.045: multi subNetwork solution in the nextStep() is converged, iteration #2
[2026-02-07 14:55:13] INFO  org.interpss.multiNet.algo.MultiNet3Ph3SeqDStabSolverImpl - 0.049999999999999996: multi subNetwork solution in the nextStep() is converged, iteration #2
[2026-02-07 14:55:13] INFO  org.interpss.multiNet.algo.MultiNet3Ph3SeqDStabSolverImpl - 0.049999999999999996: multi subNetwork solution in the nextStep() is converged, iteration #2
[2026-02-07 14:55:13] INFO  org.interpss.multiNet.algo.MultiNet3Ph3SeqDStabSolverImpl - 0.05499999999999999: multi subNetwork solution in the nextStep() is converged, iteration #2
[2026-02-07 14:55:13] INFO  org.interpss.multiNet.algo.MultiNet3Ph3SeqDStabSolverImpl - 0.05499999999999999: multi subNetwork solution in the nextStep() is converged, iteration #2
[2026-02-07 14:55:13] INFO  org.interpss.multiNet.algo.MultiNet3Ph3SeqDStabSolverImpl - 0.05999999999999999: multi subNetwork solution in the nextStep() is converged, iteration #2
[2026-02-07 14:55:13] INFO  org.interpss.multiNet.algo.MultiNet3Ph3SeqDStabSolverImpl - 0.05999999999999999: multi subNetwork solution in the nextStep() is converged, iteration #2
[2026-02-07 14:55:13] INFO  org.interpss.multiNet.algo.MultiNet3Ph3SeqDStabSolverImpl - 0.06499999999999999: multi subNetwork solution in the nextStep() is converged, iteration #2
[2026-02-07 14:55:13] INFO  org.interpss.multiNet.algo.MultiNet3Ph3SeqDStabSolverImpl - 0.06499999999999999: multi subNetwork solution in the nextStep() is converged, iteration #2
[2026-02-07 14:55:13] INFO  org.interpss.multiNet.algo.MultiNet3Ph3SeqDStabSolverImpl - 0.06999999999999999: multi subNetwork solution in the nextStep() is converged, iteration #2
[2026-02-07 14:55:13] INFO  org.interpss.multiNet.algo.MultiNet3Ph3SeqDStabSolverImpl - 0.06999999999999999: multi subNetwork solution in the nextStep() is converged, iteration #2
[2026-02-07 14:55:13] INFO  org.interpss.multiNet.algo.MultiNet3Ph3SeqDStabSolverImpl - 0.075: multi subNetwork solution in the nextStep() is converged, iteration #2
[2026-02-07 14:55:13] INFO  org.interpss.multiNet.algo.MultiNet3Ph3SeqDStabSolverImpl - 0.075: multi subNetwork solution in the nextStep() is converged, iteration #2
[2026-02-07 14:55:13] INFO  org.interpss.multiNet.algo.MultiNet3Ph3SeqDStabSolverImpl - 0.08: multi subNetwork solution in the nextStep() is converged, iteration #2
[2026-02-07 14:55:13] INFO  org.interpss.multiNet.algo.MultiNet3Ph3SeqDStabSolverImpl - 0.08: multi subNetwork solution in the nextStep() is converged, iteration #2
[2026-02-07 14:55:13] INFO  org.interpss.multiNet.algo.MultiNet3Ph3SeqDStabSolverImpl - 0.085: multi subNetwork solution in the nextStep() is converged, iteration #2
[2026-02-07 14:55:13] INFO  org.interpss.multiNet.algo.MultiNet3Ph3SeqDStabSolverImpl - 0.085: multi subNetwork solution in the nextStep() is converged, iteration #2
[2026-02-07 14:55:13] INFO  org.interpss.multiNet.algo.MultiNet3Ph3SeqDStabSolverImpl - 0.09000000000000001: multi subNetwork solution in the nextStep() is converged, iteration #2
[2026-02-07 14:55:13] INFO  org.interpss.multiNet.algo.MultiNet3Ph3SeqDStabSolverImpl - 0.09000000000000001: multi subNetwork solution in the nextStep() is converged, iteration #2
[2026-02-07 14:55:13] INFO  com.interpss.dstab.algo.defaultImpl.AbstractDStabSolver - DStab simulation completed (%) :10
[2026-02-07 14:55:13] INFO  org.interpss.multiNet.algo.MultiNet3Ph3SeqDStabSolverImpl - 0.09500000000000001: multi subNetwork solution in the nextStep() is converged, iteration #2
[2026-02-07 14:55:13] INFO  org.interpss.multiNet.algo.MultiNet3Ph3SeqDStabSolverImpl - 0.09500000000000001: multi subNetwork solution in the nextStep() is converged, iteration #2
[2026-02-07 14:55:13] INFO  org.interpss.multiNet.algo.MultiNet3Ph3SeqDStabSolverImpl - 0.10000000000000002: multi subNetwork solution in the nextStep() is converged, iteration #2
[2026-02-07 14:55:13] INFO  org.interpss.multiNet.algo.MultiNet3Ph3SeqDStabSolverImpl - 0.10000000000000002: multi subNetwork solution in the nextStep() is converged, iteration #2
[2026-02-07 14:55:13] INFO  org.interpss.multiNet.algo.MultiNet3Ph3SeqDStabSolverImpl - 0.10500000000000002: multi subNetwork solution in the nextStep() is converged, iteration #2
[2026-02-07 14:55:13] INFO  org.interpss.multiNet.algo.MultiNet3Ph3SeqDStabSolverImpl - 0.10500000000000002: multi subNetwork solution in the nextStep() is converged, iteration #2
[2026-02-07 14:55:13] INFO  org.interpss.multiNet.algo.MultiNet3Ph3SeqDStabSolverImpl - 0.11000000000000003: multi subNetwork solution in the nextStep() is converged, iteration #2
[2026-02-07 14:55:13] INFO  org.interpss.multiNet.algo.MultiNet3Ph3SeqDStabSolverImpl - 0.11000000000000003: multi subNetwork solution in the nextStep() is converged, iteration #2
[2026-02-07 14:55:13] INFO  org.interpss.multiNet.algo.MultiNet3Ph3SeqDStabSolverImpl - 0.11500000000000003: multi subNetwork solution in the nextStep() is converged, iteration #2
[2026-02-07 14:55:13] INFO  org.interpss.multiNet.algo.MultiNet3Ph3SeqDStabSolverImpl - 0.11500000000000003: multi subNetwork solution in the nextStep() is converged, iteration #2
[2026-02-07 14:55:13] INFO  org.interpss.multiNet.algo.MultiNet3Ph3SeqDStabSolverImpl - 0.12000000000000004: multi subNetwork solution in the nextStep() is converged, iteration #2
[2026-02-07 14:55:13] INFO  org.interpss.multiNet.algo.MultiNet3Ph3SeqDStabSolverImpl - 0.12000000000000004: multi subNetwork solution in the nextStep() is converged, iteration #2
[2026-02-07 14:55:13] INFO  org.interpss.multiNet.algo.MultiNet3Ph3SeqDStabSolverImpl - 0.12500000000000003: multi subNetwork solution in the nextStep() is converged, iteration #2
[2026-02-07 14:55:13] INFO  org.interpss.multiNet.algo.MultiNet3Ph3SeqDStabSolverImpl - 0.12500000000000003: multi subNetwork solution in the nextStep() is converged, iteration #2
[2026-02-07 14:55:13] INFO  org.interpss.multiNet.algo.MultiNet3Ph3SeqDStabSolverImpl - 0.13000000000000003: multi subNetwork solution in the nextStep() is converged, iteration #2
[2026-02-07 14:55:13] INFO  org.interpss.multiNet.algo.MultiNet3Ph3SeqDStabSolverImpl - 0.13000000000000003: multi subNetwork solution in the nextStep() is converged, iteration #2
[2026-02-07 14:55:13] INFO  org.interpss.multiNet.algo.MultiNet3Ph3SeqDStabSolverImpl - 0.13500000000000004: multi subNetwork solution in the nextStep() is converged, iteration #2
[2026-02-07 14:55:13] INFO  org.interpss.multiNet.algo.MultiNet3Ph3SeqDStabSolverImpl - 0.13500000000000004: multi subNetwork solution in the nextStep() is converged, iteration #2
[2026-02-07 14:55:13] INFO  org.interpss.multiNet.algo.MultiNet3Ph3SeqDStabSolverImpl - 0.14000000000000004: multi subNetwork solution in the nextStep() is converged, iteration #2
[2026-02-07 14:55:13] INFO  org.interpss.multiNet.algo.MultiNet3Ph3SeqDStabSolverImpl - 0.14000000000000004: multi subNetwork solution in the nextStep() is converged, iteration #2
[2026-02-07 14:55:13] INFO  org.interpss.multiNet.algo.MultiNet3Ph3SeqDStabSolverImpl - 0.14500000000000005: multi subNetwork solution in the nextStep() is converged, iteration #2
[2026-02-07 14:55:13] INFO  org.interpss.multiNet.algo.MultiNet3Ph3SeqDStabSolverImpl - 0.14500000000000005: multi subNetwork solution in the nextStep() is converged, iteration #2
[2026-02-07 14:55:13] INFO  org.interpss.multiNet.algo.MultiNet3Ph3SeqDStabSolverImpl - 0.15000000000000005: multi subNetwork solution in the nextStep() is converged, iteration #2
[2026-02-07 14:55:13] INFO  org.interpss.multiNet.algo.MultiNet3Ph3SeqDStabSolverImpl - 0.15000000000000005: multi subNetwork solution in the nextStep() is converged, iteration #2
[2026-02-07 14:55:13] INFO  org.interpss.multiNet.algo.MultiNet3Ph3SeqDStabSolverImpl - 0.15500000000000005: multi subNetwork solution in the nextStep() is converged, iteration #2
[2026-02-07 14:55:13] INFO  org.interpss.multiNet.algo.MultiNet3Ph3SeqDStabSolverImpl - 0.15500000000000005: multi subNetwork solution in the nextStep() is converged, iteration #2
[2026-02-07 14:55:13] INFO  org.interpss.multiNet.algo.MultiNet3Ph3SeqDStabSolverImpl - 0.16000000000000006: multi subNetwork solution in the nextStep() is converged, iteration #2
[2026-02-07 14:55:13] INFO  org.interpss.multiNet.algo.MultiNet3Ph3SeqDStabSolverImpl - 0.16000000000000006: multi subNetwork solution in the nextStep() is converged, iteration #2
[2026-02-07 14:55:13] INFO  org.interpss.multiNet.algo.MultiNet3Ph3SeqDStabSolverImpl - 0.16500000000000006: multi subNetwork solution in the nextStep() is converged, iteration #2
[2026-02-07 14:55:13] INFO  org.interpss.multiNet.algo.MultiNet3Ph3SeqDStabSolverImpl - 0.16500000000000006: multi subNetwork solution in the nextStep() is converged, iteration #2
[2026-02-07 14:55:13] INFO  org.interpss.multiNet.algo.MultiNet3Ph3SeqDStabSolverImpl - 0.17000000000000007: multi subNetwork solution in the nextStep() is converged, iteration #2
[2026-02-07 14:55:13] INFO  org.interpss.multiNet.algo.MultiNet3Ph3SeqDStabSolverImpl - 0.17000000000000007: multi subNetwork solution in the nextStep() is converged, iteration #2
[2026-02-07 14:55:13] INFO  org.interpss.multiNet.algo.MultiNet3Ph3SeqDStabSolverImpl - 0.17500000000000007: multi subNetwork solution in the nextStep() is converged, iteration #2
[2026-02-07 14:55:13] INFO  org.interpss.multiNet.algo.MultiNet3Ph3SeqDStabSolverImpl - 0.17500000000000007: multi subNetwork solution in the nextStep() is converged, iteration #2
[2026-02-07 14:55:13] INFO  org.interpss.multiNet.algo.MultiNet3Ph3SeqDStabSolverImpl - 0.18000000000000008: multi subNetwork solution in the nextStep() is converged, iteration #2
[2026-02-07 14:55:13] INFO  org.interpss.multiNet.algo.MultiNet3Ph3SeqDStabSolverImpl - 0.18000000000000008: multi subNetwork solution in the nextStep() is converged, iteration #2
[2026-02-07 14:55:13] INFO  org.interpss.multiNet.algo.MultiNet3Ph3SeqDStabSolverImpl - 0.18500000000000008: multi subNetwork solution in the nextStep() is converged, iteration #2
[2026-02-07 14:55:13] INFO  org.interpss.multiNet.algo.MultiNet3Ph3SeqDStabSolverImpl - 0.18500000000000008: multi subNetwork solution in the nextStep() is converged, iteration #2
[2026-02-07 14:55:13] INFO  org.interpss.multiNet.algo.MultiNet3Ph3SeqDStabSolverImpl - 0.19000000000000009: multi subNetwork solution in the nextStep() is converged, iteration #2
[2026-02-07 14:55:13] INFO  org.interpss.multiNet.algo.MultiNet3Ph3SeqDStabSolverImpl - 0.19000000000000009: multi subNetwork solution in the nextStep() is converged, iteration #2
[2026-02-07 14:55:13] INFO  com.interpss.dstab.algo.defaultImpl.AbstractDStabSolver - DStab simulation completed (%) :20
[2026-02-07 14:55:13] INFO  org.interpss.multiNet.algo.MultiNet3Ph3SeqDStabSolverImpl - 0.1950000000000001: multi subNetwork solution in the nextStep() is converged, iteration #2
[2026-02-07 14:55:13] INFO  org.interpss.multiNet.algo.MultiNet3Ph3SeqDStabSolverImpl - 0.1950000000000001: multi subNetwork solution in the nextStep() is converged, iteration #2
[2026-02-07 14:55:13] INFO  org.interpss.multiNet.algo.MultiNet3Ph3SeqDStabSolverImpl - 0.2000000000000001: multi subNetwork solution in the nextStep() is converged, iteration #2
[2026-02-07 14:55:13] INFO  org.interpss.multiNet.algo.MultiNet3Ph3SeqDStabSolverImpl - 0.2000000000000001: multi subNetwork solution in the nextStep() is converged, iteration #2
[2026-02-07 14:55:13] INFO  org.interpss.multiNet.algo.MultiNet3Ph3SeqDStabSolverImpl - 0.2050000000000001: multi subNetwork solution in the nextStep() is converged, iteration #2
[2026-02-07 14:55:13] INFO  org.interpss.multiNet.algo.MultiNet3Ph3SeqDStabSolverImpl - 0.2050000000000001: multi subNetwork solution in the nextStep() is converged, iteration #2
[2026-02-07 14:55:13] INFO  org.interpss.multiNet.algo.MultiNet3Ph3SeqDStabSolverImpl - 0.2100000000000001: multi subNetwork solution in the nextStep() is converged, iteration #2
[2026-02-07 14:55:13] INFO  org.interpss.multiNet.algo.MultiNet3Ph3SeqDStabSolverImpl - 0.2100000000000001: multi subNetwork solution in the nextStep() is converged, iteration #2
[2026-02-07 14:55:13] INFO  org.interpss.multiNet.algo.MultiNet3Ph3SeqDStabSolverImpl - 0.2150000000000001: multi subNetwork solution in the nextStep() is converged, iteration #2
[2026-02-07 14:55:13] INFO  org.interpss.multiNet.algo.MultiNet3Ph3SeqDStabSolverImpl - 0.2150000000000001: multi subNetwork solution in the nextStep() is converged, iteration #2
[2026-02-07 14:55:13] INFO  org.interpss.multiNet.algo.MultiNet3Ph3SeqDStabSolverImpl - 0.2200000000000001: multi subNetwork solution in the nextStep() is converged, iteration #2
[2026-02-07 14:55:13] INFO  org.interpss.multiNet.algo.MultiNet3Ph3SeqDStabSolverImpl - 0.2200000000000001: multi subNetwork solution in the nextStep() is converged, iteration #2
[2026-02-07 14:55:13] INFO  org.interpss.multiNet.algo.MultiNet3Ph3SeqDStabSolverImpl - 0.22500000000000012: multi subNetwork solution in the nextStep() is converged, iteration #2
[2026-02-07 14:55:13] INFO  org.interpss.multiNet.algo.MultiNet3Ph3SeqDStabSolverImpl - 0.22500000000000012: multi subNetwork solution in the nextStep() is converged, iteration #2
[2026-02-07 14:55:13] INFO  org.interpss.multiNet.algo.MultiNet3Ph3SeqDStabSolverImpl - 0.23000000000000012: multi subNetwork solution in the nextStep() is converged, iteration #2
[2026-02-07 14:55:13] INFO  org.interpss.multiNet.algo.MultiNet3Ph3SeqDStabSolverImpl - 0.23000000000000012: multi subNetwork solution in the nextStep() is converged, iteration #2
[2026-02-07 14:55:13] INFO  org.interpss.multiNet.algo.MultiNet3Ph3SeqDStabSolverImpl - 0.23500000000000013: multi subNetwork solution in the nextStep() is converged, iteration #2
[2026-02-07 14:55:13] INFO  org.interpss.multiNet.algo.MultiNet3Ph3SeqDStabSolverImpl - 0.23500000000000013: multi subNetwork solution in the nextStep() is converged, iteration #2
[2026-02-07 14:55:13] INFO  org.interpss.multiNet.algo.MultiNet3Ph3SeqDStabSolverImpl - 0.24000000000000013: multi subNetwork solution in the nextStep() is converged, iteration #2
[2026-02-07 14:55:13] INFO  org.interpss.multiNet.algo.MultiNet3Ph3SeqDStabSolverImpl - 0.24000000000000013: multi subNetwork solution in the nextStep() is converged, iteration #2
[2026-02-07 14:55:13] INFO  org.interpss.multiNet.algo.MultiNet3Ph3SeqDStabSolverImpl - 0.24500000000000013: multi subNetwork solution in the nextStep() is converged, iteration #2
[2026-02-07 14:55:13] INFO  org.interpss.multiNet.algo.MultiNet3Ph3SeqDStabSolverImpl - 0.24500000000000013: multi subNetwork solution in the nextStep() is converged, iteration #2
[2026-02-07 14:55:13] INFO  org.interpss.multiNet.algo.MultiNet3Ph3SeqDStabSolverImpl - 0.2500000000000001: multi subNetwork solution in the nextStep() is converged, iteration #2
[2026-02-07 14:55:13] INFO  org.interpss.multiNet.algo.MultiNet3Ph3SeqDStabSolverImpl - 0.2500000000000001: multi subNetwork solution in the nextStep() is converged, iteration #2
[2026-02-07 14:55:13] INFO  org.interpss.multiNet.algo.MultiNet3Ph3SeqDStabSolverImpl - 0.2550000000000001: multi subNetwork solution in the nextStep() is converged, iteration #2
[2026-02-07 14:55:13] INFO  org.interpss.multiNet.algo.MultiNet3Ph3SeqDStabSolverImpl - 0.2550000000000001: multi subNetwork solution in the nextStep() is converged, iteration #2
[2026-02-07 14:55:13] INFO  org.interpss.multiNet.algo.MultiNet3Ph3SeqDStabSolverImpl - 0.2600000000000001: multi subNetwork solution in the nextStep() is converged, iteration #2
[2026-02-07 14:55:13] INFO  org.interpss.multiNet.algo.MultiNet3Ph3SeqDStabSolverImpl - 0.2600000000000001: multi subNetwork solution in the nextStep() is converged, iteration #2
[2026-02-07 14:55:13] INFO  org.interpss.multiNet.algo.MultiNet3Ph3SeqDStabSolverImpl - 0.2650000000000001: multi subNetwork solution in the nextStep() is converged, iteration #2
[2026-02-07 14:55:13] INFO  org.interpss.multiNet.algo.MultiNet3Ph3SeqDStabSolverImpl - 0.2650000000000001: multi subNetwork solution in the nextStep() is converged, iteration #2
[2026-02-07 14:55:13] INFO  org.interpss.multiNet.algo.MultiNet3Ph3SeqDStabSolverImpl - 0.27000000000000013: multi subNetwork solution in the nextStep() is converged, iteration #2
[2026-02-07 14:55:13] INFO  org.interpss.multiNet.algo.MultiNet3Ph3SeqDStabSolverImpl - 0.27000000000000013: multi subNetwork solution in the nextStep() is converged, iteration #2
[2026-02-07 14:55:13] INFO  org.interpss.multiNet.algo.MultiNet3Ph3SeqDStabSolverImpl - 0.27500000000000013: multi subNetwork solution in the nextStep() is converged, iteration #2
[2026-02-07 14:55:13] INFO  org.interpss.multiNet.algo.MultiNet3Ph3SeqDStabSolverImpl - 0.27500000000000013: multi subNetwork solution in the nextStep() is converged, iteration #2
[2026-02-07 14:55:13] INFO  org.interpss.multiNet.algo.MultiNet3Ph3SeqDStabSolverImpl - 0.28000000000000014: multi subNetwork solution in the nextStep() is converged, iteration #2
[2026-02-07 14:55:13] INFO  org.interpss.multiNet.algo.MultiNet3Ph3SeqDStabSolverImpl - 0.28000000000000014: multi subNetwork solution in the nextStep() is converged, iteration #2
[2026-02-07 14:55:13] INFO  org.interpss.multiNet.algo.MultiNet3Ph3SeqDStabSolverImpl - 0.28500000000000014: multi subNetwork solution in the nextStep() is converged, iteration #2
[2026-02-07 14:55:13] INFO  org.interpss.multiNet.algo.MultiNet3Ph3SeqDStabSolverImpl - 0.28500000000000014: multi subNetwork solution in the nextStep() is converged, iteration #2
[2026-02-07 14:55:13] INFO  org.interpss.multiNet.algo.MultiNet3Ph3SeqDStabSolverImpl - 0.29000000000000015: multi subNetwork solution in the nextStep() is converged, iteration #2
[2026-02-07 14:55:13] INFO  org.interpss.multiNet.algo.MultiNet3Ph3SeqDStabSolverImpl - 0.29000000000000015: multi subNetwork solution in the nextStep() is converged, iteration #2
[2026-02-07 14:55:13] INFO  com.interpss.dstab.algo.defaultImpl.AbstractDStabSolver - DStab simulation completed (%) :30
[2026-02-07 14:55:13] INFO  org.interpss.multiNet.algo.MultiNet3Ph3SeqDStabSolverImpl - 0.29500000000000015: multi subNetwork solution in the nextStep() is converged, iteration #2
[2026-02-07 14:55:13] INFO  org.interpss.multiNet.algo.MultiNet3Ph3SeqDStabSolverImpl - 0.29500000000000015: multi subNetwork solution in the nextStep() is converged, iteration #2
[2026-02-07 14:55:13] INFO  org.interpss.multiNet.algo.MultiNet3Ph3SeqDStabSolverImpl - 0.30000000000000016: multi subNetwork solution in the nextStep() is converged, iteration #2
[2026-02-07 14:55:13] INFO  org.interpss.multiNet.algo.MultiNet3Ph3SeqDStabSolverImpl - 0.30000000000000016: multi subNetwork solution in the nextStep() is converged, iteration #2
[2026-02-07 14:55:13] INFO  org.interpss.multiNet.algo.MultiNet3Ph3SeqDStabSolverImpl - 0.30500000000000016: multi subNetwork solution in the nextStep() is converged, iteration #2
[2026-02-07 14:55:13] INFO  org.interpss.multiNet.algo.MultiNet3Ph3SeqDStabSolverImpl - 0.30500000000000016: multi subNetwork solution in the nextStep() is converged, iteration #2
[2026-02-07 14:55:13] INFO  org.interpss.multiNet.algo.MultiNet3Ph3SeqDStabSolverImpl - 0.31000000000000016: multi subNetwork solution in the nextStep() is converged, iteration #2
[2026-02-07 14:55:13] INFO  org.interpss.multiNet.algo.MultiNet3Ph3SeqDStabSolverImpl - 0.31000000000000016: multi subNetwork solution in the nextStep() is converged, iteration #2
[2026-02-07 14:55:13] INFO  org.interpss.multiNet.algo.MultiNet3Ph3SeqDStabSolverImpl - 0.31500000000000017: multi subNetwork solution in the nextStep() is converged, iteration #2
[2026-02-07 14:55:13] INFO  org.interpss.multiNet.algo.MultiNet3Ph3SeqDStabSolverImpl - 0.31500000000000017: multi subNetwork solution in the nextStep() is converged, iteration #2
[2026-02-07 14:55:13] INFO  org.interpss.multiNet.algo.MultiNet3Ph3SeqDStabSolverImpl - 0.3200000000000002: multi subNetwork solution in the nextStep() is converged, iteration #2
[2026-02-07 14:55:13] INFO  org.interpss.multiNet.algo.MultiNet3Ph3SeqDStabSolverImpl - 0.3200000000000002: multi subNetwork solution in the nextStep() is converged, iteration #2
[2026-02-07 14:55:13] INFO  org.interpss.multiNet.algo.MultiNet3Ph3SeqDStabSolverImpl - 0.3250000000000002: multi subNetwork solution in the nextStep() is converged, iteration #2
[2026-02-07 14:55:13] INFO  org.interpss.multiNet.algo.MultiNet3Ph3SeqDStabSolverImpl - 0.3250000000000002: multi subNetwork solution in the nextStep() is converged, iteration #2
[2026-02-07 14:55:13] INFO  org.interpss.multiNet.algo.MultiNet3Ph3SeqDStabSolverImpl - 0.3300000000000002: multi subNetwork solution in the nextStep() is converged, iteration #2
[2026-02-07 14:55:13] INFO  org.interpss.multiNet.algo.MultiNet3Ph3SeqDStabSolverImpl - 0.3300000000000002: multi subNetwork solution in the nextStep() is converged, iteration #2
[2026-02-07 14:55:13] INFO  org.interpss.multiNet.algo.MultiNet3Ph3SeqDStabSolverImpl - 0.3350000000000002: multi subNetwork solution in the nextStep() is converged, iteration #2
[2026-02-07 14:55:13] INFO  org.interpss.multiNet.algo.MultiNet3Ph3SeqDStabSolverImpl - 0.3350000000000002: multi subNetwork solution in the nextStep() is converged, iteration #2
[2026-02-07 14:55:13] INFO  org.interpss.multiNet.algo.MultiNet3Ph3SeqDStabSolverImpl - 0.3400000000000002: multi subNetwork solution in the nextStep() is converged, iteration #2
[2026-02-07 14:55:13] INFO  org.interpss.multiNet.algo.MultiNet3Ph3SeqDStabSolverImpl - 0.3400000000000002: multi subNetwork solution in the nextStep() is converged, iteration #2
[2026-02-07 14:55:13] INFO  org.interpss.multiNet.algo.MultiNet3Ph3SeqDStabSolverImpl - 0.3450000000000002: multi subNetwork solution in the nextStep() is converged, iteration #2
[2026-02-07 14:55:13] INFO  org.interpss.multiNet.algo.MultiNet3Ph3SeqDStabSolverImpl - 0.3450000000000002: multi subNetwork solution in the nextStep() is converged, iteration #2
[2026-02-07 14:55:13] INFO  org.interpss.multiNet.algo.MultiNet3Ph3SeqDStabSolverImpl - 0.3500000000000002: multi subNetwork solution in the nextStep() is converged, iteration #2
[2026-02-07 14:55:13] INFO  org.interpss.multiNet.algo.MultiNet3Ph3SeqDStabSolverImpl - 0.3500000000000002: multi subNetwork solution in the nextStep() is converged, iteration #2
[2026-02-07 14:55:13] INFO  org.interpss.multiNet.algo.MultiNet3Ph3SeqDStabSolverImpl - 0.3550000000000002: multi subNetwork solution in the nextStep() is converged, iteration #2
[2026-02-07 14:55:13] INFO  org.interpss.multiNet.algo.MultiNet3Ph3SeqDStabSolverImpl - 0.3550000000000002: multi subNetwork solution in the nextStep() is converged, iteration #2
[2026-02-07 14:55:13] INFO  org.interpss.multiNet.algo.MultiNet3Ph3SeqDStabSolverImpl - 0.3600000000000002: multi subNetwork solution in the nextStep() is converged, iteration #2
[2026-02-07 14:55:13] INFO  org.interpss.multiNet.algo.MultiNet3Ph3SeqDStabSolverImpl - 0.3600000000000002: multi subNetwork solution in the nextStep() is converged, iteration #2
[2026-02-07 14:55:13] INFO  org.interpss.multiNet.algo.MultiNet3Ph3SeqDStabSolverImpl - 0.3650000000000002: multi subNetwork solution in the nextStep() is converged, iteration #2
[2026-02-07 14:55:13] INFO  org.interpss.multiNet.algo.MultiNet3Ph3SeqDStabSolverImpl - 0.3650000000000002: multi subNetwork solution in the nextStep() is converged, iteration #2
[2026-02-07 14:55:13] INFO  org.interpss.multiNet.algo.MultiNet3Ph3SeqDStabSolverImpl - 0.3700000000000002: multi subNetwork solution in the nextStep() is converged, iteration #2
[2026-02-07 14:55:13] INFO  org.interpss.multiNet.algo.MultiNet3Ph3SeqDStabSolverImpl - 0.3700000000000002: multi subNetwork solution in the nextStep() is converged, iteration #2
[2026-02-07 14:55:13] INFO  org.interpss.multiNet.algo.MultiNet3Ph3SeqDStabSolverImpl - 0.3750000000000002: multi subNetwork solution in the nextStep() is converged, iteration #2
[2026-02-07 14:55:13] INFO  org.interpss.multiNet.algo.MultiNet3Ph3SeqDStabSolverImpl - 0.3750000000000002: multi subNetwork solution in the nextStep() is converged, iteration #2
[2026-02-07 14:55:13] INFO  org.interpss.multiNet.algo.MultiNet3Ph3SeqDStabSolverImpl - 0.3800000000000002: multi subNetwork solution in the nextStep() is converged, iteration #2
[2026-02-07 14:55:13] INFO  org.interpss.multiNet.algo.MultiNet3Ph3SeqDStabSolverImpl - 0.3800000000000002: multi subNetwork solution in the nextStep() is converged, iteration #2
[2026-02-07 14:55:13] INFO  org.interpss.multiNet.algo.MultiNet3Ph3SeqDStabSolverImpl - 0.38500000000000023: multi subNetwork solution in the nextStep() is converged, iteration #2
[2026-02-07 14:55:13] INFO  org.interpss.multiNet.algo.MultiNet3Ph3SeqDStabSolverImpl - 0.38500000000000023: multi subNetwork solution in the nextStep() is converged, iteration #2
[2026-02-07 14:55:13] INFO  org.interpss.multiNet.algo.MultiNet3Ph3SeqDStabSolverImpl - 0.39000000000000024: multi subNetwork solution in the nextStep() is converged, iteration #2
[2026-02-07 14:55:13] INFO  org.interpss.multiNet.algo.MultiNet3Ph3SeqDStabSolverImpl - 0.39000000000000024: multi subNetwork solution in the nextStep() is converged, iteration #2
[2026-02-07 14:55:13] INFO  com.interpss.dstab.algo.defaultImpl.AbstractDStabSolver - DStab simulation completed (%) :40
[2026-02-07 14:55:13] INFO  org.interpss.multiNet.algo.MultiNet3Ph3SeqDStabSolverImpl - 0.39500000000000024: multi subNetwork solution in the nextStep() is converged, iteration #2
[2026-02-07 14:55:13] INFO  org.interpss.multiNet.algo.MultiNet3Ph3SeqDStabSolverImpl - 0.39500000000000024: multi subNetwork solution in the nextStep() is converged, iteration #2
[2026-02-07 14:55:13] INFO  org.interpss.multiNet.algo.MultiNet3Ph3SeqDStabSolverImpl - 0.40000000000000024: multi subNetwork solution in the nextStep() is converged, iteration #2
[2026-02-07 14:55:13] INFO  org.interpss.multiNet.algo.MultiNet3Ph3SeqDStabSolverImpl - 0.40000000000000024: multi subNetwork solution in the nextStep() is converged, iteration #2
[2026-02-07 14:55:13] INFO  org.interpss.multiNet.algo.MultiNet3Ph3SeqDStabSolverImpl - 0.40500000000000025: multi subNetwork solution in the nextStep() is converged, iteration #2
[2026-02-07 14:55:13] INFO  org.interpss.multiNet.algo.MultiNet3Ph3SeqDStabSolverImpl - 0.40500000000000025: multi subNetwork solution in the nextStep() is converged, iteration #2
[2026-02-07 14:55:13] INFO  org.interpss.multiNet.algo.MultiNet3Ph3SeqDStabSolverImpl - 0.41000000000000025: multi subNetwork solution in the nextStep() is converged, iteration #2
[2026-02-07 14:55:13] INFO  org.interpss.multiNet.algo.MultiNet3Ph3SeqDStabSolverImpl - 0.41000000000000025: multi subNetwork solution in the nextStep() is converged, iteration #2
[2026-02-07 14:55:13] INFO  org.interpss.multiNet.algo.MultiNet3Ph3SeqDStabSolverImpl - 0.41500000000000026: multi subNetwork solution in the nextStep() is converged, iteration #2
[2026-02-07 14:55:13] INFO  org.interpss.multiNet.algo.MultiNet3Ph3SeqDStabSolverImpl - 0.41500000000000026: multi subNetwork solution in the nextStep() is converged, iteration #2
[2026-02-07 14:55:13] INFO  org.interpss.multiNet.algo.MultiNet3Ph3SeqDStabSolverImpl - 0.42000000000000026: multi subNetwork solution in the nextStep() is converged, iteration #2
[2026-02-07 14:55:13] INFO  org.interpss.multiNet.algo.MultiNet3Ph3SeqDStabSolverImpl - 0.42000000000000026: multi subNetwork solution in the nextStep() is converged, iteration #2
[2026-02-07 14:55:13] INFO  org.interpss.multiNet.algo.MultiNet3Ph3SeqDStabSolverImpl - 0.42500000000000027: multi subNetwork solution in the nextStep() is converged, iteration #2
[2026-02-07 14:55:13] INFO  org.interpss.multiNet.algo.MultiNet3Ph3SeqDStabSolverImpl - 0.42500000000000027: multi subNetwork solution in the nextStep() is converged, iteration #2
[2026-02-07 14:55:13] INFO  org.interpss.multiNet.algo.MultiNet3Ph3SeqDStabSolverImpl - 0.43000000000000027: multi subNetwork solution in the nextStep() is converged, iteration #2
[2026-02-07 14:55:13] INFO  org.interpss.multiNet.algo.MultiNet3Ph3SeqDStabSolverImpl - 0.43000000000000027: multi subNetwork solution in the nextStep() is converged, iteration #2
[2026-02-07 14:55:13] INFO  org.interpss.multiNet.algo.MultiNet3Ph3SeqDStabSolverImpl - 0.4350000000000003: multi subNetwork solution in the nextStep() is converged, iteration #2
[2026-02-07 14:55:13] INFO  org.interpss.multiNet.algo.MultiNet3Ph3SeqDStabSolverImpl - 0.4350000000000003: multi subNetwork solution in the nextStep() is converged, iteration #2
[2026-02-07 14:55:13] INFO  org.interpss.multiNet.algo.MultiNet3Ph3SeqDStabSolverImpl - 0.4400000000000003: multi subNetwork solution in the nextStep() is converged, iteration #2
[2026-02-07 14:55:13] INFO  org.interpss.multiNet.algo.MultiNet3Ph3SeqDStabSolverImpl - 0.4400000000000003: multi subNetwork solution in the nextStep() is converged, iteration #2
[2026-02-07 14:55:13] INFO  org.interpss.multiNet.algo.MultiNet3Ph3SeqDStabSolverImpl - 0.4450000000000003: multi subNetwork solution in the nextStep() is converged, iteration #2
[2026-02-07 14:55:13] INFO  org.interpss.multiNet.algo.MultiNet3Ph3SeqDStabSolverImpl - 0.4450000000000003: multi subNetwork solution in the nextStep() is converged, iteration #2
[2026-02-07 14:55:13] INFO  org.interpss.multiNet.algo.MultiNet3Ph3SeqDStabSolverImpl - 0.4500000000000003: multi subNetwork solution in the nextStep() is converged, iteration #2
[2026-02-07 14:55:13] INFO  org.interpss.multiNet.algo.MultiNet3Ph3SeqDStabSolverImpl - 0.4500000000000003: multi subNetwork solution in the nextStep() is converged, iteration #2
[2026-02-07 14:55:13] INFO  org.interpss.multiNet.algo.MultiNet3Ph3SeqDStabSolverImpl - 0.4550000000000003: multi subNetwork solution in the nextStep() is converged, iteration #2
[2026-02-07 14:55:13] INFO  org.interpss.multiNet.algo.MultiNet3Ph3SeqDStabSolverImpl - 0.4550000000000003: multi subNetwork solution in the nextStep() is converged, iteration #2
[2026-02-07 14:55:13] INFO  org.interpss.multiNet.algo.MultiNet3Ph3SeqDStabSolverImpl - 0.4600000000000003: multi subNetwork solution in the nextStep() is converged, iteration #2
[2026-02-07 14:55:13] INFO  org.interpss.multiNet.algo.MultiNet3Ph3SeqDStabSolverImpl - 0.4600000000000003: multi subNetwork solution in the nextStep() is converged, iteration #2
[2026-02-07 14:55:13] INFO  org.interpss.multiNet.algo.MultiNet3Ph3SeqDStabSolverImpl - 0.4650000000000003: multi subNetwork solution in the nextStep() is converged, iteration #2
[2026-02-07 14:55:13] INFO  org.interpss.multiNet.algo.MultiNet3Ph3SeqDStabSolverImpl - 0.4650000000000003: multi subNetwork solution in the nextStep() is converged, iteration #2
[2026-02-07 14:55:13] INFO  org.interpss.multiNet.algo.MultiNet3Ph3SeqDStabSolverImpl - 0.4700000000000003: multi subNetwork solution in the nextStep() is converged, iteration #2
[2026-02-07 14:55:13] INFO  org.interpss.multiNet.algo.MultiNet3Ph3SeqDStabSolverImpl - 0.4700000000000003: multi subNetwork solution in the nextStep() is converged, iteration #2
[2026-02-07 14:55:13] INFO  org.interpss.multiNet.algo.MultiNet3Ph3SeqDStabSolverImpl - 0.4750000000000003: multi subNetwork solution in the nextStep() is converged, iteration #2
[2026-02-07 14:55:13] INFO  org.interpss.multiNet.algo.MultiNet3Ph3SeqDStabSolverImpl - 0.4750000000000003: multi subNetwork solution in the nextStep() is converged, iteration #2
[2026-02-07 14:55:13] INFO  org.interpss.multiNet.algo.MultiNet3Ph3SeqDStabSolverImpl - 0.4800000000000003: multi subNetwork solution in the nextStep() is converged, iteration #2
[2026-02-07 14:55:13] INFO  org.interpss.multiNet.algo.MultiNet3Ph3SeqDStabSolverImpl - 0.4800000000000003: multi subNetwork solution in the nextStep() is converged, iteration #2
[2026-02-07 14:55:13] INFO  org.interpss.multiNet.algo.MultiNet3Ph3SeqDStabSolverImpl - 0.4850000000000003: multi subNetwork solution in the nextStep() is converged, iteration #2
[2026-02-07 14:55:13] INFO  org.interpss.multiNet.algo.MultiNet3Ph3SeqDStabSolverImpl - 0.4850000000000003: multi subNetwork solution in the nextStep() is converged, iteration #2
[2026-02-07 14:55:13] INFO  org.interpss.multiNet.algo.MultiNet3Ph3SeqDStabSolverImpl - 0.4900000000000003: multi subNetwork solution in the nextStep() is converged, iteration #2
[2026-02-07 14:55:13] INFO  org.interpss.multiNet.algo.MultiNet3Ph3SeqDStabSolverImpl - 0.4900000000000003: multi subNetwork solution in the nextStep() is converged, iteration #2
[2026-02-07 14:55:13] INFO  com.interpss.dstab.algo.defaultImpl.AbstractDStabSolver - DStab simulation completed (%) :50
[2026-02-07 14:55:13] INFO  org.interpss.multiNet.algo.MultiNet3Ph3SeqDStabSolverImpl - 0.49500000000000033: multi subNetwork solution in the nextStep() is converged, iteration #2
[2026-02-07 14:55:13] INFO  org.interpss.multiNet.algo.MultiNet3Ph3SeqDStabSolverImpl - 0.49500000000000033: multi subNetwork solution in the nextStep() is converged, iteration #2
[2026-02-07 14:55:13] INFO  org.interpss.multiNet.algo.MultiNet3Ph3SeqDStabSolverImpl - 0.5000000000000003: multi subNetwork solution in the nextStep() is converged, iteration #2
[2026-02-07 14:55:13] INFO  org.interpss.multiNet.algo.MultiNet3Ph3SeqDStabSolverImpl - 0.5000000000000003: multi subNetwork solution in the nextStep() is converged, iteration #2
[2026-02-07 14:55:13] INFO  org.interpss.multiNet.algo.MultiNet3Ph3SeqDStabSolverImpl - 0.5050000000000003: multi subNetwork solution in the nextStep() is converged, iteration #2
[2026-02-07 14:55:13] INFO  org.interpss.multiNet.algo.MultiNet3Ph3SeqDStabSolverImpl - 0.5050000000000003: multi subNetwork solution in the nextStep() is converged, iteration #2
[2026-02-07 14:55:13] INFO  org.interpss.multiNet.algo.MultiNet3Ph3SeqDStabSolverImpl - 0.5100000000000003: multi subNetwork solution in the nextStep() is converged, iteration #2
[2026-02-07 14:55:13] INFO  org.interpss.multiNet.algo.MultiNet3Ph3SeqDStabSolverImpl - 0.5100000000000003: multi subNetwork solution in the nextStep() is converged, iteration #2
[2026-02-07 14:55:13] INFO  org.interpss.multiNet.algo.MultiNet3Ph3SeqDStabSolverImpl - 0.5150000000000003: multi subNetwork solution in the nextStep() is converged, iteration #2
[2026-02-07 14:55:13] INFO  org.interpss.multiNet.algo.MultiNet3Ph3SeqDStabSolverImpl - 0.5150000000000003: multi subNetwork solution in the nextStep() is converged, iteration #2
[2026-02-07 14:55:13] INFO  org.interpss.multiNet.algo.MultiNet3Ph3SeqDStabSolverImpl - 0.5200000000000004: multi subNetwork solution in the nextStep() is converged, iteration #2
[2026-02-07 14:55:13] INFO  org.interpss.multiNet.algo.MultiNet3Ph3SeqDStabSolverImpl - 0.5200000000000004: multi subNetwork solution in the nextStep() is converged, iteration #2
[2026-02-07 14:55:13] INFO  org.interpss.multiNet.algo.MultiNet3Ph3SeqDStabSolverImpl - 0.5250000000000004: multi subNetwork solution in the nextStep() is converged, iteration #2
[2026-02-07 14:55:13] INFO  org.interpss.multiNet.algo.MultiNet3Ph3SeqDStabSolverImpl - 0.5250000000000004: multi subNetwork solution in the nextStep() is converged, iteration #2
[2026-02-07 14:55:13] INFO  org.interpss.multiNet.algo.MultiNet3Ph3SeqDStabSolverImpl - 0.5300000000000004: multi subNetwork solution in the nextStep() is converged, iteration #2
[2026-02-07 14:55:13] INFO  org.interpss.multiNet.algo.MultiNet3Ph3SeqDStabSolverImpl - 0.5300000000000004: multi subNetwork solution in the nextStep() is converged, iteration #2
[2026-02-07 14:55:13] INFO  org.interpss.multiNet.algo.MultiNet3Ph3SeqDStabSolverImpl - 0.5350000000000004: multi subNetwork solution in the nextStep() is converged, iteration #2
[2026-02-07 14:55:13] INFO  org.interpss.multiNet.algo.MultiNet3Ph3SeqDStabSolverImpl - 0.5350000000000004: multi subNetwork solution in the nextStep() is converged, iteration #2
[2026-02-07 14:55:13] INFO  org.interpss.multiNet.algo.MultiNet3Ph3SeqDStabSolverImpl - 0.5400000000000004: multi subNetwork solution in the nextStep() is converged, iteration #2
[2026-02-07 14:55:13] INFO  org.interpss.multiNet.algo.MultiNet3Ph3SeqDStabSolverImpl - 0.5400000000000004: multi subNetwork solution in the nextStep() is converged, iteration #2
[2026-02-07 14:55:13] INFO  org.interpss.multiNet.algo.MultiNet3Ph3SeqDStabSolverImpl - 0.5450000000000004: multi subNetwork solution in the nextStep() is converged, iteration #2
[2026-02-07 14:55:13] INFO  org.interpss.multiNet.algo.MultiNet3Ph3SeqDStabSolverImpl - 0.5450000000000004: multi subNetwork solution in the nextStep() is converged, iteration #2
[2026-02-07 14:55:13] INFO  org.interpss.multiNet.algo.MultiNet3Ph3SeqDStabSolverImpl - 0.5500000000000004: multi subNetwork solution in the nextStep() is converged, iteration #2
[2026-02-07 14:55:13] INFO  org.interpss.multiNet.algo.MultiNet3Ph3SeqDStabSolverImpl - 0.5500000000000004: multi subNetwork solution in the nextStep() is converged, iteration #2
[2026-02-07 14:55:13] INFO  org.interpss.multiNet.algo.MultiNet3Ph3SeqDStabSolverImpl - 0.5550000000000004: multi subNetwork solution in the nextStep() is converged, iteration #2
[2026-02-07 14:55:13] INFO  org.interpss.multiNet.algo.MultiNet3Ph3SeqDStabSolverImpl - 0.5550000000000004: multi subNetwork solution in the nextStep() is converged, iteration #2
[2026-02-07 14:55:13] INFO  org.interpss.multiNet.algo.MultiNet3Ph3SeqDStabSolverImpl - 0.5600000000000004: multi subNetwork solution in the nextStep() is converged, iteration #2
[2026-02-07 14:55:13] INFO  org.interpss.multiNet.algo.MultiNet3Ph3SeqDStabSolverImpl - 0.5600000000000004: multi subNetwork solution in the nextStep() is converged, iteration #2
[2026-02-07 14:55:13] INFO  org.interpss.multiNet.algo.MultiNet3Ph3SeqDStabSolverImpl - 0.5650000000000004: multi subNetwork solution in the nextStep() is converged, iteration #2
[2026-02-07 14:55:13] INFO  org.interpss.multiNet.algo.MultiNet3Ph3SeqDStabSolverImpl - 0.5650000000000004: multi subNetwork solution in the nextStep() is converged, iteration #2
[2026-02-07 14:55:13] INFO  org.interpss.multiNet.algo.MultiNet3Ph3SeqDStabSolverImpl - 0.5700000000000004: multi subNetwork solution in the nextStep() is converged, iteration #2
[2026-02-07 14:55:13] INFO  org.interpss.multiNet.algo.MultiNet3Ph3SeqDStabSolverImpl - 0.5700000000000004: multi subNetwork solution in the nextStep() is converged, iteration #2
[2026-02-07 14:55:13] INFO  org.interpss.multiNet.algo.MultiNet3Ph3SeqDStabSolverImpl - 0.5750000000000004: multi subNetwork solution in the nextStep() is converged, iteration #2
[2026-02-07 14:55:13] INFO  org.interpss.multiNet.algo.MultiNet3Ph3SeqDStabSolverImpl - 0.5750000000000004: multi subNetwork solution in the nextStep() is converged, iteration #2
[2026-02-07 14:55:13] INFO  org.interpss.multiNet.algo.MultiNet3Ph3SeqDStabSolverImpl - 0.5800000000000004: multi subNetwork solution in the nextStep() is converged, iteration #2
[2026-02-07 14:55:13] INFO  org.interpss.multiNet.algo.MultiNet3Ph3SeqDStabSolverImpl - 0.5800000000000004: multi subNetwork solution in the nextStep() is converged, iteration #2
[2026-02-07 14:55:13] INFO  org.interpss.multiNet.algo.MultiNet3Ph3SeqDStabSolverImpl - 0.5850000000000004: multi subNetwork solution in the nextStep() is converged, iteration #2
[2026-02-07 14:55:13] INFO  org.interpss.multiNet.algo.MultiNet3Ph3SeqDStabSolverImpl - 0.5850000000000004: multi subNetwork solution in the nextStep() is converged, iteration #2
[2026-02-07 14:55:13] INFO  org.interpss.multiNet.algo.MultiNet3Ph3SeqDStabSolverImpl - 0.5900000000000004: multi subNetwork solution in the nextStep() is converged, iteration #2
[2026-02-07 14:55:13] INFO  org.interpss.multiNet.algo.MultiNet3Ph3SeqDStabSolverImpl - 0.5900000000000004: multi subNetwork solution in the nextStep() is converged, iteration #2
[2026-02-07 14:55:13] INFO  com.interpss.dstab.algo.defaultImpl.AbstractDStabSolver - DStab simulation completed (%) :60
[2026-02-07 14:55:13] INFO  org.interpss.multiNet.algo.MultiNet3Ph3SeqDStabSolverImpl - 0.5950000000000004: multi subNetwork solution in the nextStep() is converged, iteration #2
[2026-02-07 14:55:13] INFO  org.interpss.multiNet.algo.MultiNet3Ph3SeqDStabSolverImpl - 0.5950000000000004: multi subNetwork solution in the nextStep() is converged, iteration #2
[2026-02-07 14:55:13] INFO  org.interpss.multiNet.algo.MultiNet3Ph3SeqDStabSolverImpl - 0.6000000000000004: multi subNetwork solution in the nextStep() is converged, iteration #2
[2026-02-07 14:55:13] INFO  org.interpss.multiNet.algo.MultiNet3Ph3SeqDStabSolverImpl - 0.6000000000000004: multi subNetwork solution in the nextStep() is converged, iteration #2
[2026-02-07 14:55:13] INFO  org.interpss.multiNet.algo.MultiNet3Ph3SeqDStabSolverImpl - 0.6050000000000004: multi subNetwork solution in the nextStep() is converged, iteration #2
[2026-02-07 14:55:13] INFO  org.interpss.multiNet.algo.MultiNet3Ph3SeqDStabSolverImpl - 0.6050000000000004: multi subNetwork solution in the nextStep() is converged, iteration #2
[2026-02-07 14:55:13] INFO  org.interpss.multiNet.algo.MultiNet3Ph3SeqDStabSolverImpl - 0.6100000000000004: multi subNetwork solution in the nextStep() is converged, iteration #2
[2026-02-07 14:55:13] INFO  org.interpss.multiNet.algo.MultiNet3Ph3SeqDStabSolverImpl - 0.6100000000000004: multi subNetwork solution in the nextStep() is converged, iteration #2
[2026-02-07 14:55:13] INFO  org.interpss.multiNet.algo.MultiNet3Ph3SeqDStabSolverImpl - 0.6150000000000004: multi subNetwork solution in the nextStep() is converged, iteration #2
[2026-02-07 14:55:13] INFO  org.interpss.multiNet.algo.MultiNet3Ph3SeqDStabSolverImpl - 0.6150000000000004: multi subNetwork solution in the nextStep() is converged, iteration #2
[2026-02-07 14:55:13] INFO  org.interpss.multiNet.algo.MultiNet3Ph3SeqDStabSolverImpl - 0.6200000000000004: multi subNetwork solution in the nextStep() is converged, iteration #2
[2026-02-07 14:55:13] INFO  org.interpss.multiNet.algo.MultiNet3Ph3SeqDStabSolverImpl - 0.6200000000000004: multi subNetwork solution in the nextStep() is converged, iteration #2
[2026-02-07 14:55:13] INFO  org.interpss.multiNet.algo.MultiNet3Ph3SeqDStabSolverImpl - 0.6250000000000004: multi subNetwork solution in the nextStep() is converged, iteration #2
[2026-02-07 14:55:13] INFO  org.interpss.multiNet.algo.MultiNet3Ph3SeqDStabSolverImpl - 0.6250000000000004: multi subNetwork solution in the nextStep() is converged, iteration #2
[2026-02-07 14:55:13] INFO  org.interpss.multiNet.algo.MultiNet3Ph3SeqDStabSolverImpl - 0.6300000000000004: multi subNetwork solution in the nextStep() is converged, iteration #2
[2026-02-07 14:55:13] INFO  org.interpss.multiNet.algo.MultiNet3Ph3SeqDStabSolverImpl - 0.6300000000000004: multi subNetwork solution in the nextStep() is converged, iteration #2
[2026-02-07 14:55:13] INFO  org.interpss.multiNet.algo.MultiNet3Ph3SeqDStabSolverImpl - 0.6350000000000005: multi subNetwork solution in the nextStep() is converged, iteration #2
[2026-02-07 14:55:13] INFO  org.interpss.multiNet.algo.MultiNet3Ph3SeqDStabSolverImpl - 0.6350000000000005: multi subNetwork solution in the nextStep() is converged, iteration #2
[2026-02-07 14:55:13] INFO  org.interpss.multiNet.algo.MultiNet3Ph3SeqDStabSolverImpl - 0.6400000000000005: multi subNetwork solution in the nextStep() is converged, iteration #2
[2026-02-07 14:55:13] INFO  org.interpss.multiNet.algo.MultiNet3Ph3SeqDStabSolverImpl - 0.6400000000000005: multi subNetwork solution in the nextStep() is converged, iteration #2
[2026-02-07 14:55:13] INFO  org.interpss.multiNet.algo.MultiNet3Ph3SeqDStabSolverImpl - 0.6450000000000005: multi subNetwork solution in the nextStep() is converged, iteration #2
[2026-02-07 14:55:13] INFO  org.interpss.multiNet.algo.MultiNet3Ph3SeqDStabSolverImpl - 0.6450000000000005: multi subNetwork solution in the nextStep() is converged, iteration #2
[2026-02-07 14:55:13] INFO  org.interpss.multiNet.algo.MultiNet3Ph3SeqDStabSolverImpl - 0.6500000000000005: multi subNetwork solution in the nextStep() is converged, iteration #2
[2026-02-07 14:55:13] INFO  org.interpss.multiNet.algo.MultiNet3Ph3SeqDStabSolverImpl - 0.6500000000000005: multi subNetwork solution in the nextStep() is converged, iteration #2
[2026-02-07 14:55:13] INFO  org.interpss.multiNet.algo.MultiNet3Ph3SeqDStabSolverImpl - 0.6550000000000005: multi subNetwork solution in the nextStep() is converged, iteration #2
[2026-02-07 14:55:13] INFO  org.interpss.multiNet.algo.MultiNet3Ph3SeqDStabSolverImpl - 0.6550000000000005: multi subNetwork solution in the nextStep() is converged, iteration #2
[2026-02-07 14:55:13] INFO  org.interpss.multiNet.algo.MultiNet3Ph3SeqDStabSolverImpl - 0.6600000000000005: multi subNetwork solution in the nextStep() is converged, iteration #2
[2026-02-07 14:55:13] INFO  org.interpss.multiNet.algo.MultiNet3Ph3SeqDStabSolverImpl - 0.6600000000000005: multi subNetwork solution in the nextStep() is converged, iteration #2
[2026-02-07 14:55:13] INFO  org.interpss.multiNet.algo.MultiNet3Ph3SeqDStabSolverImpl - 0.6650000000000005: multi subNetwork solution in the nextStep() is converged, iteration #2
[2026-02-07 14:55:13] INFO  org.interpss.multiNet.algo.MultiNet3Ph3SeqDStabSolverImpl - 0.6650000000000005: multi subNetwork solution in the nextStep() is converged, iteration #2
[2026-02-07 14:55:13] INFO  org.interpss.multiNet.algo.MultiNet3Ph3SeqDStabSolverImpl - 0.6700000000000005: multi subNetwork solution in the nextStep() is converged, iteration #2
[2026-02-07 14:55:13] INFO  org.interpss.multiNet.algo.MultiNet3Ph3SeqDStabSolverImpl - 0.6700000000000005: multi subNetwork solution in the nextStep() is converged, iteration #2
[2026-02-07 14:55:13] INFO  org.interpss.multiNet.algo.MultiNet3Ph3SeqDStabSolverImpl - 0.6750000000000005: multi subNetwork solution in the nextStep() is converged, iteration #2
[2026-02-07 14:55:13] INFO  org.interpss.multiNet.algo.MultiNet3Ph3SeqDStabSolverImpl - 0.6750000000000005: multi subNetwork solution in the nextStep() is converged, iteration #2
[2026-02-07 14:55:13] INFO  org.interpss.multiNet.algo.MultiNet3Ph3SeqDStabSolverImpl - 0.6800000000000005: multi subNetwork solution in the nextStep() is converged, iteration #2
[2026-02-07 14:55:13] INFO  org.interpss.multiNet.algo.MultiNet3Ph3SeqDStabSolverImpl - 0.6800000000000005: multi subNetwork solution in the nextStep() is converged, iteration #2
[2026-02-07 14:55:13] INFO  org.interpss.multiNet.algo.MultiNet3Ph3SeqDStabSolverImpl - 0.6850000000000005: multi subNetwork solution in the nextStep() is converged, iteration #2
[2026-02-07 14:55:13] INFO  org.interpss.multiNet.algo.MultiNet3Ph3SeqDStabSolverImpl - 0.6850000000000005: multi subNetwork solution in the nextStep() is converged, iteration #2
[2026-02-07 14:55:13] INFO  org.interpss.multiNet.algo.MultiNet3Ph3SeqDStabSolverImpl - 0.6900000000000005: multi subNetwork solution in the nextStep() is converged, iteration #2
[2026-02-07 14:55:13] INFO  org.interpss.multiNet.algo.MultiNet3Ph3SeqDStabSolverImpl - 0.6900000000000005: multi subNetwork solution in the nextStep() is converged, iteration #2
[2026-02-07 14:55:13] INFO  com.interpss.dstab.algo.defaultImpl.AbstractDStabSolver - DStab simulation completed (%) :70
[2026-02-07 14:55:13] INFO  org.interpss.multiNet.algo.MultiNet3Ph3SeqDStabSolverImpl - 0.6950000000000005: multi subNetwork solution in the nextStep() is converged, iteration #2
[2026-02-07 14:55:13] INFO  org.interpss.multiNet.algo.MultiNet3Ph3SeqDStabSolverImpl - 0.6950000000000005: multi subNetwork solution in the nextStep() is converged, iteration #2
[2026-02-07 14:55:13] INFO  org.interpss.multiNet.algo.MultiNet3Ph3SeqDStabSolverImpl - 0.7000000000000005: multi subNetwork solution in the nextStep() is converged, iteration #2
[2026-02-07 14:55:13] INFO  org.interpss.multiNet.algo.MultiNet3Ph3SeqDStabSolverImpl - 0.7000000000000005: multi subNetwork solution in the nextStep() is converged, iteration #2
[2026-02-07 14:55:13] INFO  org.interpss.multiNet.algo.MultiNet3Ph3SeqDStabSolverImpl - 0.7050000000000005: multi subNetwork solution in the nextStep() is converged, iteration #2
[2026-02-07 14:55:13] INFO  org.interpss.multiNet.algo.MultiNet3Ph3SeqDStabSolverImpl - 0.7050000000000005: multi subNetwork solution in the nextStep() is converged, iteration #2
[2026-02-07 14:55:13] INFO  org.interpss.multiNet.algo.MultiNet3Ph3SeqDStabSolverImpl - 0.7100000000000005: multi subNetwork solution in the nextStep() is converged, iteration #2
[2026-02-07 14:55:13] INFO  org.interpss.multiNet.algo.MultiNet3Ph3SeqDStabSolverImpl - 0.7100000000000005: multi subNetwork solution in the nextStep() is converged, iteration #2
[2026-02-07 14:55:13] INFO  org.interpss.multiNet.algo.MultiNet3Ph3SeqDStabSolverImpl - 0.7150000000000005: multi subNetwork solution in the nextStep() is converged, iteration #2
[2026-02-07 14:55:13] INFO  org.interpss.multiNet.algo.MultiNet3Ph3SeqDStabSolverImpl - 0.7150000000000005: multi subNetwork solution in the nextStep() is converged, iteration #2
[2026-02-07 14:55:13] INFO  org.interpss.multiNet.algo.MultiNet3Ph3SeqDStabSolverImpl - 0.7200000000000005: multi subNetwork solution in the nextStep() is converged, iteration #2
[2026-02-07 14:55:13] INFO  org.interpss.multiNet.algo.MultiNet3Ph3SeqDStabSolverImpl - 0.7200000000000005: multi subNetwork solution in the nextStep() is converged, iteration #2
[2026-02-07 14:55:13] INFO  org.interpss.multiNet.algo.MultiNet3Ph3SeqDStabSolverImpl - 0.7250000000000005: multi subNetwork solution in the nextStep() is converged, iteration #2
[2026-02-07 14:55:13] INFO  org.interpss.multiNet.algo.MultiNet3Ph3SeqDStabSolverImpl - 0.7250000000000005: multi subNetwork solution in the nextStep() is converged, iteration #2
[2026-02-07 14:55:13] INFO  org.interpss.multiNet.algo.MultiNet3Ph3SeqDStabSolverImpl - 0.7300000000000005: multi subNetwork solution in the nextStep() is converged, iteration #2
[2026-02-07 14:55:13] INFO  org.interpss.multiNet.algo.MultiNet3Ph3SeqDStabSolverImpl - 0.7300000000000005: multi subNetwork solution in the nextStep() is converged, iteration #2
[2026-02-07 14:55:13] INFO  org.interpss.multiNet.algo.MultiNet3Ph3SeqDStabSolverImpl - 0.7350000000000005: multi subNetwork solution in the nextStep() is converged, iteration #2
[2026-02-07 14:55:13] INFO  org.interpss.multiNet.algo.MultiNet3Ph3SeqDStabSolverImpl - 0.7350000000000005: multi subNetwork solution in the nextStep() is converged, iteration #2
[2026-02-07 14:55:13] INFO  org.interpss.multiNet.algo.MultiNet3Ph3SeqDStabSolverImpl - 0.7400000000000005: multi subNetwork solution in the nextStep() is converged, iteration #2
[2026-02-07 14:55:13] INFO  org.interpss.multiNet.algo.MultiNet3Ph3SeqDStabSolverImpl - 0.7400000000000005: multi subNetwork solution in the nextStep() is converged, iteration #2
[2026-02-07 14:55:13] INFO  org.interpss.multiNet.algo.MultiNet3Ph3SeqDStabSolverImpl - 0.7450000000000006: multi subNetwork solution in the nextStep() is converged, iteration #2
[2026-02-07 14:55:13] INFO  org.interpss.multiNet.algo.MultiNet3Ph3SeqDStabSolverImpl - 0.7450000000000006: multi subNetwork solution in the nextStep() is converged, iteration #2
[2026-02-07 14:55:13] INFO  org.interpss.multiNet.algo.MultiNet3Ph3SeqDStabSolverImpl - 0.7500000000000006: multi subNetwork solution in the nextStep() is converged, iteration #2
[2026-02-07 14:55:13] INFO  org.interpss.multiNet.algo.MultiNet3Ph3SeqDStabSolverImpl - 0.7500000000000006: multi subNetwork solution in the nextStep() is converged, iteration #2
[2026-02-07 14:55:13] INFO  org.interpss.multiNet.algo.MultiNet3Ph3SeqDStabSolverImpl - 0.7550000000000006: multi subNetwork solution in the nextStep() is converged, iteration #2
[2026-02-07 14:55:13] INFO  org.interpss.multiNet.algo.MultiNet3Ph3SeqDStabSolverImpl - 0.7550000000000006: multi subNetwork solution in the nextStep() is converged, iteration #2
[2026-02-07 14:55:13] INFO  org.interpss.multiNet.algo.MultiNet3Ph3SeqDStabSolverImpl - 0.7600000000000006: multi subNetwork solution in the nextStep() is converged, iteration #2
[2026-02-07 14:55:13] INFO  org.interpss.multiNet.algo.MultiNet3Ph3SeqDStabSolverImpl - 0.7600000000000006: multi subNetwork solution in the nextStep() is converged, iteration #2
[2026-02-07 14:55:13] INFO  org.interpss.multiNet.algo.MultiNet3Ph3SeqDStabSolverImpl - 0.7650000000000006: multi subNetwork solution in the nextStep() is converged, iteration #2
[2026-02-07 14:55:13] INFO  org.interpss.multiNet.algo.MultiNet3Ph3SeqDStabSolverImpl - 0.7650000000000006: multi subNetwork solution in the nextStep() is converged, iteration #2
[2026-02-07 14:55:13] INFO  org.interpss.multiNet.algo.MultiNet3Ph3SeqDStabSolverImpl - 0.7700000000000006: multi subNetwork solution in the nextStep() is converged, iteration #2
[2026-02-07 14:55:13] INFO  org.interpss.multiNet.algo.MultiNet3Ph3SeqDStabSolverImpl - 0.7700000000000006: multi subNetwork solution in the nextStep() is converged, iteration #2
[2026-02-07 14:55:13] INFO  org.interpss.multiNet.algo.MultiNet3Ph3SeqDStabSolverImpl - 0.7750000000000006: multi subNetwork solution in the nextStep() is converged, iteration #2
[2026-02-07 14:55:13] INFO  org.interpss.multiNet.algo.MultiNet3Ph3SeqDStabSolverImpl - 0.7750000000000006: multi subNetwork solution in the nextStep() is converged, iteration #2
[2026-02-07 14:55:13] INFO  org.interpss.multiNet.algo.MultiNet3Ph3SeqDStabSolverImpl - 0.7800000000000006: multi subNetwork solution in the nextStep() is converged, iteration #2
[2026-02-07 14:55:13] INFO  org.interpss.multiNet.algo.MultiNet3Ph3SeqDStabSolverImpl - 0.7800000000000006: multi subNetwork solution in the nextStep() is converged, iteration #2
[2026-02-07 14:55:13] INFO  org.interpss.multiNet.algo.MultiNet3Ph3SeqDStabSolverImpl - 0.7850000000000006: multi subNetwork solution in the nextStep() is converged, iteration #2
[2026-02-07 14:55:13] INFO  org.interpss.multiNet.algo.MultiNet3Ph3SeqDStabSolverImpl - 0.7850000000000006: multi subNetwork solution in the nextStep() is converged, iteration #2
[2026-02-07 14:55:13] INFO  org.interpss.multiNet.algo.MultiNet3Ph3SeqDStabSolverImpl - 0.7900000000000006: multi subNetwork solution in the nextStep() is converged, iteration #2
[2026-02-07 14:55:13] INFO  org.interpss.multiNet.algo.MultiNet3Ph3SeqDStabSolverImpl - 0.7900000000000006: multi subNetwork solution in the nextStep() is converged, iteration #2
[2026-02-07 14:55:13] INFO  com.interpss.dstab.algo.defaultImpl.AbstractDStabSolver - DStab simulation completed (%) :80
[2026-02-07 14:55:13] INFO  org.interpss.multiNet.algo.MultiNet3Ph3SeqDStabSolverImpl - 0.7950000000000006: multi subNetwork solution in the nextStep() is converged, iteration #2
[2026-02-07 14:55:13] INFO  org.interpss.multiNet.algo.MultiNet3Ph3SeqDStabSolverImpl - 0.7950000000000006: multi subNetwork solution in the nextStep() is converged, iteration #2
[2026-02-07 14:55:13] INFO  org.interpss.multiNet.algo.MultiNet3Ph3SeqDStabSolverImpl - 0.8000000000000006: multi subNetwork solution in the nextStep() is converged, iteration #2
[2026-02-07 14:55:13] INFO  org.interpss.multiNet.algo.MultiNet3Ph3SeqDStabSolverImpl - 0.8000000000000006: multi subNetwork solution in the nextStep() is converged, iteration #2
[2026-02-07 14:55:13] INFO  org.interpss.multiNet.algo.MultiNet3Ph3SeqDStabSolverImpl - 0.8050000000000006: multi subNetwork solution in the nextStep() is converged, iteration #2
[2026-02-07 14:55:13] INFO  org.interpss.multiNet.algo.MultiNet3Ph3SeqDStabSolverImpl - 0.8050000000000006: multi subNetwork solution in the nextStep() is converged, iteration #2
[2026-02-07 14:55:13] INFO  org.interpss.multiNet.algo.MultiNet3Ph3SeqDStabSolverImpl - 0.8100000000000006: multi subNetwork solution in the nextStep() is converged, iteration #2
[2026-02-07 14:55:13] INFO  org.interpss.multiNet.algo.MultiNet3Ph3SeqDStabSolverImpl - 0.8100000000000006: multi subNetwork solution in the nextStep() is converged, iteration #2
[2026-02-07 14:55:13] INFO  org.interpss.multiNet.algo.MultiNet3Ph3SeqDStabSolverImpl - 0.8150000000000006: multi subNetwork solution in the nextStep() is converged, iteration #2
[2026-02-07 14:55:13] INFO  org.interpss.multiNet.algo.MultiNet3Ph3SeqDStabSolverImpl - 0.8150000000000006: multi subNetwork solution in the nextStep() is converged, iteration #2
[2026-02-07 14:55:13] INFO  org.interpss.multiNet.algo.MultiNet3Ph3SeqDStabSolverImpl - 0.8200000000000006: multi subNetwork solution in the nextStep() is converged, iteration #2
[2026-02-07 14:55:13] INFO  org.interpss.multiNet.algo.MultiNet3Ph3SeqDStabSolverImpl - 0.8200000000000006: multi subNetwork solution in the nextStep() is converged, iteration #2
[2026-02-07 14:55:13] INFO  org.interpss.multiNet.algo.MultiNet3Ph3SeqDStabSolverImpl - 0.8250000000000006: multi subNetwork solution in the nextStep() is converged, iteration #2
[2026-02-07 14:55:13] INFO  org.interpss.multiNet.algo.MultiNet3Ph3SeqDStabSolverImpl - 0.8250000000000006: multi subNetwork solution in the nextStep() is converged, iteration #2
[2026-02-07 14:55:13] INFO  org.interpss.multiNet.algo.MultiNet3Ph3SeqDStabSolverImpl - 0.8300000000000006: multi subNetwork solution in the nextStep() is converged, iteration #2
[2026-02-07 14:55:13] INFO  org.interpss.multiNet.algo.MultiNet3Ph3SeqDStabSolverImpl - 0.8300000000000006: multi subNetwork solution in the nextStep() is converged, iteration #2
[2026-02-07 14:55:13] INFO  org.interpss.multiNet.algo.MultiNet3Ph3SeqDStabSolverImpl - 0.8350000000000006: multi subNetwork solution in the nextStep() is converged, iteration #2
[2026-02-07 14:55:13] INFO  org.interpss.multiNet.algo.MultiNet3Ph3SeqDStabSolverImpl - 0.8350000000000006: multi subNetwork solution in the nextStep() is converged, iteration #2
[2026-02-07 14:55:13] INFO  org.interpss.multiNet.algo.MultiNet3Ph3SeqDStabSolverImpl - 0.8400000000000006: multi subNetwork solution in the nextStep() is converged, iteration #2
[2026-02-07 14:55:13] INFO  org.interpss.multiNet.algo.MultiNet3Ph3SeqDStabSolverImpl - 0.8400000000000006: multi subNetwork solution in the nextStep() is converged, iteration #2
[2026-02-07 14:55:13] INFO  org.interpss.multiNet.algo.MultiNet3Ph3SeqDStabSolverImpl - 0.8450000000000006: multi subNetwork solution in the nextStep() is converged, iteration #2
[2026-02-07 14:55:13] INFO  org.interpss.multiNet.algo.MultiNet3Ph3SeqDStabSolverImpl - 0.8450000000000006: multi subNetwork solution in the nextStep() is converged, iteration #2
[2026-02-07 14:55:13] INFO  org.interpss.multiNet.algo.MultiNet3Ph3SeqDStabSolverImpl - 0.8500000000000006: multi subNetwork solution in the nextStep() is converged, iteration #2
[2026-02-07 14:55:13] INFO  org.interpss.multiNet.algo.MultiNet3Ph3SeqDStabSolverImpl - 0.8500000000000006: multi subNetwork solution in the nextStep() is converged, iteration #2
[2026-02-07 14:55:13] INFO  org.interpss.multiNet.algo.MultiNet3Ph3SeqDStabSolverImpl - 0.8550000000000006: multi subNetwork solution in the nextStep() is converged, iteration #2
[2026-02-07 14:55:13] INFO  org.interpss.multiNet.algo.MultiNet3Ph3SeqDStabSolverImpl - 0.8550000000000006: multi subNetwork solution in the nextStep() is converged, iteration #2
[2026-02-07 14:55:13] INFO  org.interpss.multiNet.algo.MultiNet3Ph3SeqDStabSolverImpl - 0.8600000000000007: multi subNetwork solution in the nextStep() is converged, iteration #2
[2026-02-07 14:55:13] INFO  org.interpss.multiNet.algo.MultiNet3Ph3SeqDStabSolverImpl - 0.8600000000000007: multi subNetwork solution in the nextStep() is converged, iteration #2
[2026-02-07 14:55:13] INFO  org.interpss.multiNet.algo.MultiNet3Ph3SeqDStabSolverImpl - 0.8650000000000007: multi subNetwork solution in the nextStep() is converged, iteration #2
[2026-02-07 14:55:13] INFO  org.interpss.multiNet.algo.MultiNet3Ph3SeqDStabSolverImpl - 0.8650000000000007: multi subNetwork solution in the nextStep() is converged, iteration #2
[2026-02-07 14:55:13] INFO  org.interpss.multiNet.algo.MultiNet3Ph3SeqDStabSolverImpl - 0.8700000000000007: multi subNetwork solution in the nextStep() is converged, iteration #2
[2026-02-07 14:55:13] INFO  org.interpss.multiNet.algo.MultiNet3Ph3SeqDStabSolverImpl - 0.8700000000000007: multi subNetwork solution in the nextStep() is converged, iteration #2
[...]
[2026-02-07 14:55:13] INFO  org.interpss.threePhase.powerflow.impl.DistributionPowerFlowAlgorithmImpl - The distribution network power flow is converged.
[2026-02-07 14:55:13] ERROR com.interpss.dstab.impl.BaseDStabNetworkImpl - Network solution step diverged! Bus votlage magnitude > 10 @Bus2Dummy
[2026-02-07 14:55:13] INFO  org.interpss.threePhase.powerflow.impl.DistributionPowerFlowAlgorithmImpl - The distribution network power flow is converged.
[2026-02-07 14:55:13] ERROR com.interpss.dstab.impl.BaseDStabNetworkImpl - Network solution step diverged! Bus votlage magnitude > 10 @Bus2Dummy
[2026-02-07 14:55:13] INFO  org.interpss.threePhase.powerflow.impl.DistributionPowerFlowAlgorithmImpl - The distribution network power flow is converged.
[2026-02-07 14:55:13] ERROR com.interpss.dstab.impl.BaseDStabNetworkImpl - Network solution step diverged! Bus votlage magnitude > 10 @Bus2Dummy
[2026-02-07 14:55:13] INFO  org.interpss.threePhase.powerflow.impl.DistributionPowerFlowAlgorithmImpl - The distribution network power flow is converged.
[2026-02-07 14:55:13] ERROR com.interpss.dstab.impl.BaseDStabNetworkImpl - Network solution step diverged! Bus votlage magnitude > 10 @Bus2Dummy
[2026-02-07 14:55:13] INFO  org.interpss.threePhase.powerflow.impl.DistributionPowerFlowAlgorithmImpl - The distribution network power flow is converged.
[2026-02-07 14:55:13] ERROR com.interpss.dstab.impl.BaseDStabNetworkImpl - Network solution step diverged! Bus votlage magnitude > 10 @Bus2Dummy
[2026-02-07 14:55:13] INFO  org.interpss.threePhase.powerflow.impl.DistributionPowerFlowAlgorithmImpl - The distribution network power flow is converged.
[2026-02-07 14:55:13] ERROR com.interpss.dstab.impl.BaseDStabNetworkImpl - Network solution step diverged! Bus votlage magnitude > 10 @Bus2Dummy
[2026-02-07 14:55:13] INFO  org.interpss.threePhase.powerflow.impl.DistributionPowerFlowAlgorithmImpl - The distribution network power flow is converged.
[2026-02-07 14:55:13] ERROR com.interpss.dstab.impl.BaseDStabNetworkImpl - Network solution step diverged! Bus votlage magnitude > 10 @Bus2Dummy
[2026-02-07 14:55:13] INFO  org.interpss.threePhase.powerflow.impl.DistributionPowerFlowAlgorithmImpl - The distribution network power flow is converged.
[2026-02-07 14:55:13] ERROR com.interpss.dstab.impl.BaseDStabNetworkImpl - Network solution step diverged! Bus votlage magnitude > 10 @Bus2Dummy
[2026-02-07 14:55:13] INFO  org.interpss.threePhase.powerflow.impl.DistributionPowerFlowAlgorithmImpl - The distribution network power flow is converged.
[2026-02-07 14:55:13] ERROR com.interpss.dstab.impl.BaseDStabNetworkImpl - Network solution step diverged! Bus votlage magnitude > 10 @Bus2Dummy
[2026-02-07 14:55:13] INFO  org.interpss.threePhase.powerflow.impl.DistributionPowerFlowAlgorithmImpl - The distribution network power flow is converged.
[2026-02-07 14:55:13] ERROR com.interpss.dstab.impl.BaseDStabNetworkImpl - Network solution step diverged! Bus votlage magnitude > 10 @Bus2Dummy
[2026-02-07 14:55:13] INFO  org.interpss.threePhase.powerflow.impl.DistributionPowerFlowAlgorithmImpl - The distribution network power flow is converged.
[2026-02-07 14:55:13] ERROR com.interpss.dstab.impl.BaseDStabNetworkImpl - Network solution step diverged! Bus votlage magnitude > 10 @Bus2Dummy
[2026-02-07 14:55:13] INFO  org.interpss.threePhase.powerflow.impl.DistributionPowerFlowAlgorithmImpl - The distribution network power flow is converged.
[2026-02-07 14:55:13] ERROR com.interpss.dstab.impl.BaseDStabNetworkImpl - Network solution step diverged! Bus votlage magnitude > 10 @Bus2Dummy
[2026-02-07 14:55:13] INFO  org.interpss.threePhase.powerflow.impl.DistributionPowerFlowAlgorithmImpl - The distribution network power flow is converged.
[2026-02-07 14:55:13] ERROR com.interpss.dstab.impl.BaseDStabNetworkImpl - Network solution step diverged! Bus votlage magnitude > 10 @Bus2Dummy
[2026-02-07 14:55:13] INFO  org.interpss.threePhase.powerflow.impl.DistributionPowerFlowAlgorithmImpl - The distribution network power flow is converged.
[2026-02-07 14:55:13] ERROR com.interpss.dstab.impl.BaseDStabNetworkImpl - Network solution step diverged! Bus votlage magnitude > 10 @Bus2Dummy
[2026-02-07 14:55:13] INFO  org.interpss.threePhase.powerflow.impl.DistributionPowerFlowAlgorithmImpl - The distribution network power flow is converged.
[2026-02-07 14:55:13] ERROR com.interpss.dstab.impl.BaseDStabNetworkImpl - Network solution step diverged! Bus votlage magnitude > 10 @Bus2Dummy
[2026-02-07 14:55:13] INFO  org.interpss.threePhase.powerflow.impl.DistributionPowerFlowAlgorithmImpl - The distribution network power flow is converged.
[2026-02-07 14:55:13] ERROR com.interpss.dstab.impl.BaseDStabNetworkImpl - Network solution step diverged! Bus votlage magnitude > 10 @Bus2Dummy
[2026-02-07 14:55:13] INFO  org.interpss.threePhase.powerflow.impl.DistributionPowerFlowAlgorithmImpl - The distribution network power flow is converged.
[2026-02-07 14:55:13] ERROR com.interpss.dstab.impl.BaseDStabNetworkImpl - Network solution step diverged! Bus votlage magnitude > 10 @Bus2Dummy
[2026-02-07 14:55:13] INFO  org.interpss.threePhase.powerflow.impl.DistributionPowerFlowAlgorithmImpl - The distribution network power flow is converged.
[2026-02-07 14:55:13] ERROR com.interpss.dstab.impl.BaseDStabNetworkImpl - Network solution step diverged! Bus votlage magnitude > 10 @Bus2Dummy
[2026-02-07 14:55:13] INFO  org.interpss.threePhase.powerflow.impl.DistributionPowerFlowAlgorithmImpl - The distribution network power flow is converged.
[2026-02-07 14:55:13] ERROR com.interpss.dstab.impl.BaseDStabNetworkImpl - Network solution step diverged! Bus votlage magnitude > 10 @Bus2Dummy
[2026-02-07 14:55:13] INFO  org.interpss.threePhase.powerflow.impl.DistributionPowerFlowAlgorithmImpl - The distribution network power flow is converged.
[2026-02-07 14:55:13] ERROR com.interpss.dstab.impl.BaseDStabNetworkImpl - Network solution step diverged! Bus votlage magnitude > 10 @Bus2Dummy
[2026-02-07 14:55:13] INFO  org.interpss.threePhase.powerflow.impl.DistributionPowerFlowAlgorithmImpl - The distribution network power flow is converged.
[2026-02-07 14:55:13] ERROR com.interpss.dstab.impl.BaseDStabNetworkImpl - Network solution step diverged! Bus votlage magnitude > 10 @Bus2Dummy
[2026-02-07 14:55:13] INFO  org.interpss.threePhase.powerflow.impl.DistributionPowerFlowAlgorithmImpl - The distribution network power flow is converged.
[2026-02-07 14:55:13] ERROR com.interpss.dstab.impl.BaseDStabNetworkImpl - Network solution step diverged! Bus votlage magnitude > 10 @Bus2Dummy
[2026-02-07 14:55:13] INFO  org.interpss.threePhase.powerflow.impl.DistributionPowerFlowAlgorithmImpl - The distribution network power flow is converged.
[2026-02-07 14:55:13] ERROR com.interpss.dstab.impl.BaseDStabNetworkImpl - Network solution step diverged! Bus votlage magnitude > 10 @Bus2Dummy
[2026-02-07 14:55:13] INFO  org.interpss.threePhase.powerflow.impl.DistributionPowerFlowAlgorithmImpl - The distribution network power flow is converged.
[2026-02-07 14:55:13] ERROR com.interpss.dstab.impl.BaseDStabNetworkImpl - Network solution step diverged! Bus votlage magnitude > 10 @Bus2Dummy
[2026-02-07 14:55:13] INFO  org.interpss.threePhase.powerflow.impl.DistributionPowerFlowAlgorithmImpl - The distribution network power flow is converged.
[2026-02-07 14:55:13] ERROR com.interpss.dstab.impl.BaseDStabNetworkImpl - Network solution step diverged! Bus votlage magnitude > 10 @Bus2Dummy
[2026-02-07 14:55:13] INFO  org.interpss.threePhase.powerflow.impl.DistributionPowerFlowAlgorithmImpl - The distribution network power flow is converged.
[2026-02-07 14:55:13] ERROR com.interpss.dstab.impl.BaseDStabNetworkImpl - Network solution step diverged! Bus votlage magnitude > 10 @Bus2Dummy
[2026-02-07 14:55:13] INFO  org.interpss.threePhase.powerflow.impl.DistributionPowerFlowAlgorithmImpl - The distribution network power flow is converged.
[2026-02-07 14:55:13] ERROR com.interpss.dstab.impl.BaseDStabNetworkImpl - Network solution step diverged! Bus votlage magnitude > 10 @Bus2Dummy
[2026-02-07 14:55:13] INFO  org.interpss.threePhase.powerflow.impl.DistributionPowerFlowAlgorithmImpl - The distribution network power flow is converged.
[2026-02-07 14:55:13] ERROR com.interpss.dstab.impl.BaseDStabNetworkImpl - Network solution step diverged! Bus votlage magnitude > 10 @Bus2Dummy
[2026-02-07 14:55:13] INFO  org.interpss.threePhase.powerflow.impl.DistributionPowerFlowAlgorithmImpl - The distribution network power flow is converged.
[2026-02-07 14:55:13] ERROR com.interpss.dstab.impl.BaseDStabNetworkImpl - Network solution step diverged! Bus votlage magnitude > 10 @Bus2Dummy
[2026-02-07 14:55:13] INFO  org.interpss.threePhase.powerflow.impl.DistributionPowerFlowAlgorithmImpl - The distribution network power flow is converged.
[2026-02-07 14:55:13] ERROR com.interpss.dstab.impl.BaseDStabNetworkImpl - Network solution step diverged! Bus votlage magnitude > 10 @Bus2Dummy
[2026-02-07 14:55:13] INFO  org.interpss.threePhase.powerflow.impl.DistributionPowerFlowAlgorithmImpl - The distribution network power flow is converged.
[2026-02-07 14:55:13] ERROR com.interpss.dstab.impl.BaseDStabNetworkImpl - Network solution step diverged! Bus votlage magnitude > 10 @Bus2Dummy
[2026-02-07 14:55:13] INFO  org.interpss.threePhase.powerflow.impl.DistributionPowerFlowAlgorithmImpl - The distribution network power flow is converged.
[2026-02-07 14:55:13] ERROR com.interpss.dstab.impl.BaseDStabNetworkImpl - Network solution step diverged! Bus votlage magnitude > 10 @Bus2Dummy
[2026-02-07 14:55:13] INFO  org.interpss.threePhase.powerflow.impl.DistributionPowerFlowAlgorithmImpl - The distribution network power flow is converged.
[2026-02-07 14:55:13] ERROR com.interpss.dstab.impl.BaseDStabNetworkImpl - Network solution step diverged! Bus votlage magnitude > 10 @Bus2Dummy
[2026-02-07 14:55:13] INFO  org.interpss.threePhase.powerflow.impl.DistributionPowerFlowAlgorithmImpl - The distribution network power flow is converged.
[2026-02-07 14:55:13] ERROR com.interpss.dstab.impl.BaseDStabNetworkImpl - Network solution step diverged! Bus votlage magnitude > 10 @Bus2Dummy
[2026-02-07 14:55:13] INFO  org.interpss.threePhase.powerflow.impl.DistributionPowerFlowAlgorithmImpl - The distribution network power flow is converged.
[2026-02-07 14:55:13] ERROR com.interpss.dstab.impl.BaseDStabNetworkImpl - Network solution step diverged! Bus votlage magnitude > 10 @Bus2Dummy
[2026-02-07 14:55:13] INFO  org.interpss.threePhase.powerflow.impl.DistributionPowerFlowAlgorithmImpl - The distribution network power flow is converged.
[2026-02-07 14:55:13] ERROR com.interpss.dstab.impl.BaseDStabNetworkImpl - Network solution step diverged! Bus votlage magnitude > 10 @Bus2Dummy
[2026-02-07 14:55:13] INFO  org.interpss.threePhase.powerflow.impl.DistributionPowerFlowAlgorithmImpl - The distribution network power flow is converged.
[2026-02-07 14:55:13] ERROR com.interpss.dstab.impl.BaseDStabNetworkImpl - Network solution step diverged! Bus votlage magnitude > 10 @Bus2Dummy
[2026-02-07 14:55:13] INFO  org.interpss.threePhase.powerflow.impl.DistributionPowerFlowAlgorithmImpl - The distribution network power flow is converged.
[2026-02-07 14:55:13] ERROR com.interpss.dstab.impl.BaseDStabNetworkImpl - Network solution step diverged! Bus votlage magnitude > 10 @Bus2Dummy
[2026-02-07 14:55:13] INFO  org.interpss.threePhase.powerflow.impl.DistributionPowerFlowAlgorithmImpl - The distribution network power flow is converged.
[2026-02-07 14:55:13] ERROR com.interpss.dstab.impl.BaseDStabNetworkImpl - Network solution step diverged! Bus votlage magnitude > 10 @Bus2Dummy
[2026-02-07 14:55:13] INFO  org.interpss.threePhase.powerflow.impl.DistributionPowerFlowAlgorithmImpl - The distribution network power flow is converged.
[2026-02-07 14:55:13] ERROR com.interpss.dstab.impl.BaseDStabNetworkImpl - Network solution step diverged! Bus votlage magnitude > 10 @Bus2Dummy
[2026-02-07 14:55:13] INFO  org.interpss.threePhase.powerflow.impl.DistributionPowerFlowAlgorithmImpl - The distribution network power flow is converged.
[2026-02-07 14:55:13] ERROR com.interpss.dstab.impl.BaseDStabNetworkImpl - Network solution step diverged! Bus votlage magnitude > 10 @Bus2Dummy
[2026-02-07 14:55:13] INFO  org.interpss.threePhase.powerflow.impl.DistributionPowerFlowAlgorithmImpl - The distribution network power flow is converged.
[2026-02-07 14:55:13] ERROR com.interpss.dstab.impl.BaseDStabNetworkImpl - Network solution step diverged! Bus votlage magnitude > 10 @Bus2Dummy
[2026-02-07 14:55:13] INFO  org.interpss.threePhase.powerflow.impl.DistributionPowerFlowAlgorithmImpl - The distribution network power flow is converged.
[2026-02-07 14:55:13] ERROR com.interpss.dstab.impl.BaseDStabNetworkImpl - Network solution step diverged! Bus votlage magnitude > 10 @Bus2Dummy
[2026-02-07 14:55:13] INFO  org.interpss.threePhase.powerflow.impl.DistributionPowerFlowAlgorithmImpl - The distribution network power flow is converged.
[2026-02-07 14:55:13] ERROR com.interpss.dstab.impl.BaseDStabNetworkImpl - Network solution step diverged! Bus votlage magnitude > 10 @Bus2Dummy
[2026-02-07 14:55:13] INFO  org.interpss.threePhase.powerflow.impl.DistributionPowerFlowAlgorithmImpl - The distribution network power flow is converged.
[2026-02-07 14:55:13] ERROR com.interpss.dstab.impl.BaseDStabNetworkImpl - Network solution step diverged! Bus votlage magnitude > 10 @Bus2Dummy
[2026-02-07 14:55:13] INFO  org.interpss.threePhase.powerflow.impl.DistributionPowerFlowAlgorithmImpl - The distribution network power flow is converged.
[2026-02-07 14:55:13] ERROR com.interpss.dstab.impl.BaseDStabNetworkImpl - Network solution step diverged! Bus votlage magnitude > 10 @Bus2Dummy
[2026-02-07 14:55:13] INFO  org.interpss.threePhase.powerflow.impl.DistributionPowerFlowAlgorithmImpl - The distribution network power flow is converged.
[2026-02-07 14:55:13] ERROR com.interpss.dstab.impl.BaseDStabNetworkImpl - Network solution step diverged! Bus votlage magnitude > 10 @Bus2Dummy
[2026-02-07 14:55:13] INFO  org.interpss.threePhase.powerflow.impl.DistributionPowerFlowAlgorithmImpl - The distribution network power flow is converged.
[2026-02-07 14:55:13] ERROR com.interpss.dstab.impl.BaseDStabNetworkImpl - Network solution step diverged! Bus votlage magnitude > 10 @Bus2Dummy
[2026-02-07 14:55:13] INFO  org.interpss.threePhase.powerflow.impl.DistributionPowerFlowAlgorithmImpl - The distribution network power flow is converged.
[2026-02-07 14:55:13] ERROR com.interpss.dstab.impl.BaseDStabNetworkImpl - Network solution step diverged! Bus votlage magnitude > 10 @Bus2Dummy
[2026-02-07 14:55:13] INFO  org.interpss.threePhase.powerflow.impl.DistributionPowerFlowAlgorithmImpl - The distribution network power flow is converged.
[2026-02-07 14:55:13] ERROR com.interpss.dstab.impl.BaseDStabNetworkImpl - Network solution step diverged! Bus votlage magnitude > 10 @Bus2Dummy
[2026-02-07 14:55:13] INFO  org.interpss.threePhase.powerflow.impl.DistributionPowerFlowAlgorithmImpl - The distribution network power flow is converged.
[2026-02-07 14:55:13] ERROR com.interpss.dstab.impl.BaseDStabNetworkImpl - Network solution step diverged! Bus votlage magnitude > 10 @Bus2Dummy
[2026-02-07 14:55:13] INFO  org.interpss.threePhase.powerflow.impl.DistributionPowerFlowAlgorithmImpl - The distribution network power flow is converged.
[2026-02-07 14:55:13] ERROR com.interpss.dstab.impl.BaseDStabNetworkImpl - Network solution step diverged! Bus votlage magnitude > 10 @Bus2Dummy
[2026-02-07 14:55:13] INFO  org.interpss.threePhase.powerflow.impl.DistributionPowerFlowAlgorithmImpl - The distribution network power flow is converged.
[2026-02-07 14:55:13] ERROR com.interpss.dstab.impl.BaseDStabNetworkImpl - Network solution step diverged! Bus votlage magnitude > 10 @Bus2Dummy
[2026-02-07 14:55:13] INFO  org.interpss.threePhase.powerflow.impl.DistributionPowerFlowAlgorithmImpl - The distribution network power flow is converged.
[2026-02-07 14:55:13] ERROR com.interpss.dstab.impl.BaseDStabNetworkImpl - Network solution step diverged! Bus votlage magnitude > 10 @Bus2Dummy
[2026-02-07 14:55:13] INFO  org.interpss.threePhase.powerflow.impl.DistributionPowerFlowAlgorithmImpl - The distribution network power flow is converged.
[2026-02-07 14:55:13] ERROR com.interpss.dstab.impl.BaseDStabNetworkImpl - Network solution step diverged! Bus votlage magnitude > 10 @Bus2Dummy
[2026-02-07 14:55:13] INFO  org.interpss.threePhase.powerflow.impl.DistributionPowerFlowAlgorithmImpl - The distribution network power flow is converged.
[2026-02-07 14:55:13] ERROR com.interpss.dstab.impl.BaseDStabNetworkImpl - Network solution step diverged! Bus votlage magnitude > 10 @Bus2Dummy
[2026-02-07 14:55:13] INFO  org.interpss.threePhase.powerflow.impl.DistributionPowerFlowAlgorithmImpl - The distribution network power flow is converged.
[2026-02-07 14:55:13] ERROR com.interpss.dstab.impl.BaseDStabNetworkImpl - Network solution step diverged! Bus votlage magnitude > 10 @Bus2Dummy
[2026-02-07 14:55:13] INFO  org.interpss.threePhase.powerflow.impl.DistributionPowerFlowAlgorithmImpl - The distribution network power flow is converged.
[2026-02-07 14:55:13] ERROR com.interpss.dstab.impl.BaseDStabNetworkImpl - Network solution step diverged! Bus votlage magnitude > 10 @Bus2Dummy
[2026-02-07 14:55:13] INFO  org.interpss.threePhase.powerflow.impl.DistributionPowerFlowAlgorithmImpl - The distribution network power flow is converged.
[2026-02-07 14:55:13] ERROR com.interpss.dstab.impl.BaseDStabNetworkImpl - Network solution step diverged! Bus votlage magnitude > 10 @Bus2Dummy
[2026-02-07 14:55:13] INFO  org.interpss.threePhase.powerflow.impl.DistributionPowerFlowAlgorithmImpl - The distribution network power flow is converged.
[2026-02-07 14:55:13] ERROR com.interpss.dstab.impl.BaseDStabNetworkImpl - Network solution step diverged! Bus votlage magnitude > 10 @Bus2Dummy
[2026-02-07 14:55:13] INFO  org.interpss.threePhase.powerflow.impl.DistributionPowerFlowAlgorithmImpl - The distribution network power flow is converged.
[2026-02-07 14:55:13] ERROR com.interpss.dstab.impl.BaseDStabNetworkImpl - Network solution step diverged! Bus votlage magnitude > 10 @Bus2Dummy
[2026-02-07 14:55:13] INFO  org.interpss.threePhase.powerflow.impl.DistributionPowerFlowAlgorithmImpl - The distribution network power flow is converged.
[2026-02-07 14:55:13] ERROR com.interpss.dstab.impl.BaseDStabNetworkImpl - Network solution step diverged! Bus votlage magnitude > 10 @Bus2Dummy
[2026-02-07 14:55:13] INFO  org.interpss.threePhase.powerflow.impl.DistributionPowerFlowAlgorithmImpl - The distribution network power flow is converged.
[2026-02-07 14:55:13] ERROR com.interpss.dstab.impl.BaseDStabNetworkImpl - Network solution step diverged! Bus votlage magnitude > 10 @Bus2Dummy
[2026-02-07 14:55:13] INFO  org.interpss.threePhase.powerflow.impl.DistributionPowerFlowAlgorithmImpl - The distribution network power flow is converged.
[2026-02-07 14:55:13] ERROR com.interpss.dstab.impl.BaseDStabNetworkImpl - Network solution step diverged! Bus votlage magnitude > 10 @Bus2Dummy
[2026-02-07 14:55:13] INFO  org.interpss.threePhase.powerflow.impl.DistributionPowerFlowAlgorithmImpl - The distribution network power flow is converged.
[2026-02-07 14:55:13] ERROR com.interpss.dstab.impl.BaseDStabNetworkImpl - Network solution step diverged! Bus votlage magnitude > 10 @Bus2Dummy
[2026-02-07 14:55:13] INFO  org.interpss.threePhase.powerflow.impl.DistributionPowerFlowAlgorithmImpl - The distribution network power flow is converged.
[2026-02-07 14:55:13] ERROR com.interpss.dstab.impl.BaseDStabNetworkImpl - Network solution step diverged! Bus votlage magnitude > 10 @Bus2Dummy
[2026-02-07 14:55:13] INFO  com.interpss.dstab.devent.impl.DynamicSimuEventImpl - Dynamic event applied, eventId, time:3phaseFault@Bus5, 0.200
[2026-02-07 14:55:13] INFO  com.interpss.core.acsc.impl.BaseAcscNetworkImpl - YMatrix formed, sequence: Positive
